geometry optimzed in LAMMPS
_audit_creation_date              2020-11-30 
_audit_creation_method            'lammps2cif' 
_symmetry_space_group_name_H-M    'P1' 
_symmetry_Int_Tables_number       1 
_symmetry_cell_setting            triclinic 
loop_ 
_symmetry_equiv_pos_as_xyz 
  x,y,z 
_cell_length_a                    41.96356767 
_cell_length_b                    42.11164995595755 
_cell_length_c                    29.206799742531217 
_cell_angle_alpha                 90.0474927081087 
_cell_angle_beta                  90.20141602893356 
_cell_angle_gamma                 89.89342162376077 
loop_ 
_atom_site_label 
_atom_site_type_symbol 
_atom_site_fract_x 
_atom_site_fract_y 
_atom_site_fract_z 
_atom_site_charge 
C1          C  0.17549760  0.49636366  0.24142607     0.04600
C2          C  0.15832714  0.49757002  0.28246172    -0.11500
C3          C  0.12014217  0.99225589  0.28494882     0.02100
C4          C  0.10433174  0.99503811  0.24261644    -0.10100
C5          C  0.12118410  0.99132253  0.20143767     0.04600
C6          C  0.15930422  0.49717771  0.19943420    -0.09500
H7          H  0.17084574  0.49618000  0.31494854     0.10200
H8          H  0.07875887  0.99861559  0.24170068     0.07700
H9          H  0.17252440  0.49554611  0.16767367     0.07600
C10         C  0.27279667  0.49284344  0.24538514     0.04600
C11         C  0.29067518  0.50077714  0.20654070    -0.11500
C12         C  0.31866866  0.99453660  0.21142926     0.02100
C13         C  0.33450322  0.98866229  0.25300983    -0.10100
C14         C  0.31736173  0.98099751  0.29269327     0.04600
C15         C  0.28829772  0.48467568  0.28631418    -0.09500
H16         H  0.27862262  0.50695858  0.17487175     0.10200
H17         H  0.36026080  0.99032542  0.25464917     0.07700
H18         H  0.27447329  0.47920340  0.31659873     0.07600
C19         C  0.46483422  0.19953332  0.24850571     0.04600
C20         C  0.47205688  0.18248215  0.28839798    -0.11500
C21         C  0.47073213  0.14926128  0.28835918     0.02100
C22         C  0.46333032  0.13307811  0.24774341    -0.10100
C23         C  0.45695661  0.14988432  0.20727800     0.04600
C24         C  0.45694513  0.18322999  0.20804331    -0.09500
H25         H  0.47812086  0.19504310  0.31965710     0.10200
H26         H  0.46295218  0.10733359  0.24747862     0.07700
H27         H  0.45197933  0.19638376  0.17692916     0.07600
C28         C  0.47035773  0.29655372  0.24914397     0.04600
C29         C  0.46384603  0.31302725  0.20848553    -0.11500
C30         C  0.46642562  0.34616946  0.20705110     0.02100
C31         C  0.47408165  0.36291885  0.24720400    -0.10100
C32         C  0.47978277  0.34671986  0.28846536     0.04600
C33         C  0.47875232  0.31337654  0.28895621    -0.09500
H34         H  0.45760698  0.30001959  0.17767634     0.10200
H35         H  0.47539102  0.38861757  0.24640526     0.07700
H36         H  0.48336138  0.30065309  0.32055370     0.07600
N37         N  0.04160198  0.03174035  0.04398587    -0.04600
N38         N  0.05738440  0.04253333  0.07997694    -0.56800
N39         N  0.04179489  0.50355809  0.43541982    -0.04300
N40         N  0.05760236  0.49325249  0.39927405    -0.58900
N41         N  0.03750256  0.03381312  0.43805502    -0.03900
N42         N  0.05239980  0.04374065  0.40095348    -0.56700
N43         N  0.04401377  0.50549444  0.04292162    -0.03800
N44         N  0.06144912  0.49518369  0.07761936    -0.59200
C45         C  0.06749001  0.01586333  0.10131049     0.97500
C46         C  0.06258324  0.01662038  0.38088522     0.97300
N47         N  0.45435885  0.43199026  0.44540905    -0.04800
N48         N  0.44201812  0.41631200  0.41049863    -0.57300
N49         N  0.49428003  0.42777489  0.04743566    -0.03000
N50         N  0.50675910  0.41242655  0.08251177    -0.58600
N51         N  0.46299584  0.42600458  0.04823118    -0.04900
N52         N  0.45351960  0.40909696  0.08381595    -0.57600
N53         N  0.48573274  0.43107375  0.44384874    -0.02600
N54         N  0.49529076  0.41431284  0.40802994    -0.58700
Mn55       Mn  0.01948184  0.47566140  0.49074822     1.18400
C56         C  0.46768530  0.40520523  0.38775323     0.99600
C57         C  0.48117518  0.40075267  0.10467412     1.00300
N58         N  0.48148112  0.06744799  0.44344190    -0.04900
N59         N  0.48929995  0.08421784  0.40694556    -0.61200
N60         N  0.45203574  0.06577946  0.05254450    -0.03700
N61         N  0.44256110  0.08166437  0.08916083    -0.61900
N62         N  0.48322501  0.06728057  0.04852653    -0.04400
N63         N  0.49567544  0.08363138  0.08267141    -0.61500
N64         N  0.45032837  0.06560760  0.44712417    -0.03300
N65         N  0.43623209  0.08061227  0.41302493    -0.62100
Mn66       Mn  0.01477636  0.06245068  0.49244632     1.10700
C67         C  0.46074328  0.09226130  0.38854211     1.00800
C68         C  0.47012116  0.09267763  0.10739650     1.00900
N69         N  0.40960019  0.47762033  0.05200727    -0.04400
N70         N  0.39516309  0.46517496  0.08770414    -0.59800
N71         N  0.40039531  0.01150678  0.45099024    -0.03700
N72         N  0.38356886  0.02299504  0.41657887    -0.56500
N73         N  0.40059430  0.48449330  0.44925706    -0.05000
N74         N  0.38392487  0.47416627  0.41372413    -0.59300
N75         N  0.40262737  0.00867896  0.05742754    -0.04000
N76         N  0.38629193  0.01704749  0.09422260    -0.56500
Mn77       Mn  0.42840444  0.45727141  0.50006709     1.20200
Mn78       Mn  0.42755378  0.03868611  0.50205767     1.10100
Cl79       Cl  0.47181793  0.99763446  0.49580617    -0.84500
C80         C  0.38012365  0.98896028  0.11500625     0.97800
C81         C  0.37300040  0.99688927  0.39452048     0.97600
C82         C  0.46503769  0.38771809  0.34418307    -0.15000
C83         C  0.48537118  0.36470056  0.33143286    -0.30100
H84         H  0.44413674  0.39249196  0.32316946     0.14100
H85         H  0.50444341  0.35732726  0.35436652     0.14600
C86         C  0.48381500  0.38366660  0.14839143    -0.15000
C87         C  0.46173151  0.36320564  0.16329080    -0.30100
H88         H  0.50552633  0.38705120  0.16820846     0.14100
H89         H  0.44139138  0.35727565  0.14180815     0.14600
C90         C  0.45624939  0.10960004  0.34550412    -0.15000
C91         C  0.47696762  0.13147693  0.33092249    -0.30100
H92         H  0.43431139  0.10552559  0.32648688     0.14100
H93         H  0.49733511  0.13795394  0.35201640     0.14600
C94         C  0.45193826  0.13244647  0.16387253    -0.15000
C95         C  0.47291386  0.11017278  0.15071954    -0.30100
H96         H  0.43245095  0.13931457  0.14133005     0.14100
H97         H  0.49416525  0.10595740  0.17125908     0.14600
C98         C  0.46636215  0.23374937  0.24905957    -0.11800
C99         C  0.46817854  0.26236575  0.24972919    -0.13400
C100        C  0.33427533  0.97694468  0.33694520    -0.15000
C101        C  0.35556142  0.99870336  0.35082638    -0.30100
H102        H  0.33205663  0.46019788  0.35431293     0.14100
H103        H  0.35930250  0.01981956  0.33017222     0.14600
C104        C  0.36313976  0.98497485  0.15855911    -0.15000
C105        C  0.33693289  0.00169011  0.16930120    -0.30100
H106        H  0.37062138  0.96543628  0.18039700     0.14100
H107        H  0.33461732  0.52460626  0.14269390     0.14600
C108        C  0.08018758  0.01570819  0.33725232    -0.15000
C109        C  0.10223518  0.99334838  0.32858856    -0.30100
H110        H  0.07604301  0.03464345  0.31267629     0.14100
H111        H  0.11466597  0.48430954  0.35180643     0.14600
C112        C  0.10432564  0.99187336  0.15695194    -0.15000
C113        C  0.08478451  0.01579181  0.14524129    -0.30100
H114        H  0.11375025  0.48025227  0.13071981     0.14100
H115        H  0.08207796  0.03610507  0.16787802     0.14600
C116        C  0.23850006  0.49361418  0.24353268    -0.11800
C117        C  0.20977364  0.49455091  0.24242873    -0.13400
C118        C  0.17234414  0.48379967  0.74726226     0.04600
C119        C  0.15427635  0.48713990  0.78727791    -0.11500
C120        C  0.12521811  0.01999839  0.78516438     0.02100
C121        C  0.10950125  0.01709725  0.74277192    -0.10100
C122        C  0.12618048  0.00779317  0.70328697     0.04600
C123        C  0.15742421  0.48657964  0.70442776    -0.09500
H124        H  0.16563968  0.48427290  0.82042392     0.10200
H125        H  0.08405772  0.02138314  0.74076496     0.07700
H126        H  0.17121825  0.48328949  0.67344501     0.07600
C127        C  0.26962149  0.47558971  0.75094653     0.04600
C128        C  0.28610394  0.47731017  0.70928284    -0.11500
C129        C  0.31957997  0.97602137  0.70747168     0.02100
C130        C  0.33633352  0.97224621  0.74874643    -0.10100
C131        C  0.32061108  0.97449054  0.79080150     0.04600
C132        C  0.28673785  0.47491957  0.79232459    -0.09500
H133        H  0.27294479  0.47718786  0.67726055     0.10200
H134        H  0.36183435  0.96799698  0.74816468     0.07700
H135        H  0.27408267  0.47302211  0.82451185     0.07600
C136        C  0.45711629  0.19941561  0.74601818     0.04600
C137        C  0.46392690  0.18398860  0.78749171    -0.11500
C138        C  0.46660783  0.15079782  0.78880801     0.02100
C139        C  0.46377819  0.13323540  0.74816418    -0.10100
C140        C  0.45741545  0.14855880  0.70648711     0.04600
C141        C  0.45349771  0.18163269  0.70573003    -0.09500
H142        H  0.46639684  0.19766135  0.81877775     0.10200
H143        H  0.46617815  0.10760326  0.74908274     0.07700
H144        H  0.44831776  0.19355829  0.67365521     0.07600
C145        C  0.45222724  0.29640704  0.74363061     0.04600
C146        C  0.45277382  0.31329042  0.70224627    -0.11500
C147        C  0.45533877  0.34653428  0.70245914     0.02100
C148        C  0.45696571  0.36276567  0.74445512    -0.10100
C149        C  0.45505737  0.34604466  0.78595600     0.04600
C150        C  0.45257713  0.31287000  0.78531756    -0.09500
H151        H  0.45188241  0.30058245  0.66996409     0.10200
H152        H  0.45832181  0.38846102  0.74483811     0.07700
H153        H  0.45160122  0.29984552  0.81730361     0.07600
N154        N  0.04248033  0.03614509  0.54402953    -0.04600
N155        N  0.05911525  0.04828369  0.57816805    -0.56800
N156        N  0.03848190  0.50442907  0.93780026    -0.04300
N157        N  0.05454164  0.49316083  0.90252395    -0.58900
N158        N  0.03819409  0.03088593  0.93779351    -0.03900
N159        N  0.05475019  0.04061944  0.90190168    -0.56700
N160        N  0.04764930  0.50304942  0.54076644    -0.03800
N161        N  0.06431855  0.49219966  0.57589755    -0.59200
C162        C  0.07024061  0.02262980  0.60079080     0.97500
C163        C  0.06280358  0.01321344  0.88038135     0.97300
N164        N  0.46054568  0.42701035  0.94270802    -0.04800
N165        N  0.44953768  0.41057382  0.90748994    -0.57300
N166        N  0.48915082  0.43252446  0.54981073    -0.03000
N167        N  0.50114341  0.41650048  0.58475869    -0.58600
N168        N  0.45776664  0.43174317  0.55083782    -0.04900
N169        N  0.44782800  0.41480077  0.58601993    -0.57600
N170        N  0.49186209  0.42821784  0.94161867    -0.02600
N171        N  0.50280938  0.41314018  0.90528473    -0.58700
Mn172      Mn  0.01575016  0.47765845  0.99357267     1.18400
C173        C  0.47623949  0.40208247  0.88458500     0.99600
C174        C  0.47512354  0.40542866  0.60675061     1.00300
N175        N  0.47645982  0.06889269  0.94353592    -0.04900
N176        N  0.48385736  0.08666046  0.90787374    -0.61200
N177        N  0.45652055  0.06503475  0.55238790    -0.03700
N178        N  0.44706715  0.08096709  0.58892004    -0.61900
N179        N  0.48774517  0.06586937  0.54894601    -0.04400
N180        N  0.50027705  0.08190519  0.58341387    -0.61500
N181        N  0.44530148  0.06641454  0.94739493    -0.03300
N182        N  0.43088827  0.08196883  0.91400166    -0.62100
Mn183      Mn  0.01466848  0.05904374  0.99248440     1.10700
C184        C  0.45516970  0.09465552  0.88995506     1.00800
C185        C  0.47466063  0.09133115  0.60781618     1.00900
N186        N  0.40393919  0.48440838  0.55485661    -0.04400
N187        N  0.38719865  0.47363019  0.58984926    -0.59800
N188        N  0.39573649  0.01082288  0.95291326    -0.03700
N189        N  0.37469339  0.02128895  0.92279778    -0.56500
N190        N  0.40594443  0.47918555  0.94619405    -0.05000
N191        N  0.38926948  0.46878342  0.91068406    -0.59300
N192        N  0.40583555  0.01002735  0.55649820    -0.04000
N193        N  0.39028241  0.02025865  0.59283735    -0.56500
Mn194      Mn  0.43389123  0.45166777  0.99710533     1.20200
Mn195      Mn  0.42317132  0.03870517  0.00282320     1.10100
Cl196      Cl  0.46928750  0.99904271  0.99541709    -0.84500
C197        C  0.38045922  0.99330408  0.61336144     0.97800
C198        C  0.36466108  0.99464266  0.90148618     0.97600
C199        C  0.47662435  0.38487124  0.84075173    -0.15000
C200        C  0.45452890  0.36311620  0.83015426    -0.30100
H201        H  0.49624046  0.38926001  0.81739698     0.14100
H202        H  0.43671736  0.35648175  0.85532353     0.14600
C203        C  0.47644583  0.38685177  0.64941991    -0.15000
C204        C  0.45483980  0.36431331  0.65878625    -0.30100
H205        H  0.49605599  0.39112521  0.67302301     0.14100
H206        H  0.43706067  0.35797168  0.63321077     0.14600
C207        C  0.45057584  0.11272177  0.84741847    -0.15000
C208        C  0.47171372  0.13424119  0.83271996    -0.30100
H209        H  0.42881666  0.10867583  0.82798240     0.14100
H210        H  0.49217803  0.14053748  0.85371589     0.14600
C211        C  0.45430509  0.13004784  0.66372360    -0.15000
C212        C  0.47702814  0.10952379  0.65071011    -0.30100
H213        H  0.43412528  0.13477666  0.64131023     0.14100
H214        H  0.49867855  0.10717788  0.67097147     0.14600
C215        C  0.45413369  0.23353024  0.74464026    -0.11800
C216        C  0.45249993  0.26215420  0.74361561    -0.13400
C217        C  0.33948902  0.97115826  0.83326584    -0.15000
C218        C  0.34132824  0.99493682  0.86365991    -0.30100
H219        H  0.33108630  0.45846407  0.86138545     0.14100
H220        H  0.32745802  0.01642092  0.85817715     0.14600
C221        C  0.36304577  0.99299482  0.65696753    -0.15000
C222        C  0.33684334  0.97528178  0.66333472    -0.30100
H223        H  0.37077404  0.00933245  0.68357096     0.14100
H224        H  0.32916784  0.46368644  0.63796336     0.14600
C225        C  0.07997587  0.01069153  0.83662337    -0.15000
C226        C  0.10687209  0.02675171  0.82752139    -0.30100
H227        H  0.07209488  0.99230006  0.81308107     0.14100
H228        H  0.10731735  0.47781180  0.85322951     0.14600
C229        C  0.10932962  0.00390017  0.65882272    -0.15000
C230        C  0.08772986  0.02528127  0.64450336    -0.30100
H231        H  0.11505513  0.47658967  0.63134272     0.14100
H232        H  0.08366060  0.04657191  0.66470558     0.14600
C233        C  0.23512494  0.47603895  0.75111044    -0.11800
C234        C  0.20638652  0.47852318  0.74999552    -0.13400
C235        C  0.17036446  0.98467541  0.24472212     0.04600
C236        C  0.15319151  0.98695924  0.28571155    -0.11500
C237        C  0.12507735  0.50108632  0.28172783     0.02100
C238        C  0.10908441  0.50303186  0.23947450    -0.10100
C239        C  0.12608746  0.50054025  0.19830171     0.04600
C240        C  0.15417169  0.98589032  0.20270407    -0.09500
H241        H  0.16563786  0.98536117  0.31823216     0.10200
H242        H  0.08333297  0.50493188  0.23857791     0.07700
H243        H  0.16732168  0.98349800  0.17097985     0.07600
C244        C  0.26793309  0.98470201  0.24910376     0.04600
C245        C  0.28525233  0.99323457  0.20996171    -0.11500
C246        C  0.32408363  0.49985388  0.20812892     0.02100
C247        C  0.33940365  0.49232724  0.24954491    -0.10100
C248        C  0.32162733  0.48515738  0.28881172     0.04600
C249        C  0.28406053  0.97831387  0.29030139    -0.09500
H250        H  0.27280055  0.99811513  0.17813097     0.10200
H251        H  0.36520382  0.49252036  0.25149473     0.07700
H252        H  0.27067550  0.97227211  0.32075730     0.07600
C253        C  0.47409650  0.69986623  0.24442413     0.04600
C254        C  0.48028696  0.68343505  0.28524047    -0.11500
C255        C  0.47877176  0.65020220  0.28618006     0.02100
C256        C  0.47259197  0.63343195  0.24559365    -0.10100
C257        C  0.46703347  0.64966156  0.20438110     0.04600
C258        C  0.46711656  0.68298002  0.20417124    -0.09500
H259        H  0.48532031  0.69648142  0.31646421     0.10200
H260        H  0.47200761  0.60769796  0.24612494     0.07700
H261        H  0.46254605  0.69569155  0.17255152     0.07600
C262        C  0.47520651  0.79697294  0.24331357     0.04600
C263        C  0.46901576  0.81333995  0.20244786    -0.11500
C264        C  0.47026759  0.84658919  0.20145208     0.02100
C265        C  0.47627232  0.86343729  0.24205363    -0.10100
C266        C  0.48167746  0.84724650  0.28335060     0.04600
C267        C  0.48180433  0.81393116  0.28361131    -0.09500
H268        H  0.46409034  0.80023272  0.17124008     0.10200
H269        H  0.47667469  0.88917208  0.24152291     0.07700
H270        H  0.48625823  0.80126710  0.31530969     0.07600
N271        N  0.04325403  0.53671475  0.04248015    -0.04600
N272        N  0.05975519  0.54832181  0.07720667    -0.56800
N273        N  0.03809619  0.00259767  0.44023516    -0.04300
N274        N  0.05381335  0.99065935  0.40503408    -0.58900
N275        N  0.04047628  0.53479075  0.43542157    -0.03900
N276        N  0.05478721  0.54637057  0.39886488    -0.56700
N277        N  0.04150162  0.00050526  0.04380013    -0.03800
N278        N  0.05761891  0.98938191  0.07925094    -0.59200
C279        C  0.07117866  0.52220381  0.09849525     0.97500
C280        C  0.06548587  0.52023341  0.37686838     0.97300
N281        N  0.45595084  0.92991998  0.44232771    -0.04800
N282        N  0.44334674  0.91440026  0.40747299    -0.57300
N283        N  0.49296990  0.93156507  0.04385350    -0.03000
N284        N  0.50705817  0.91618468  0.07768941    -0.58600
N285        N  0.46181956  0.92877622  0.04668026    -0.04900
N286        N  0.45406537  0.91108487  0.08227462    -0.57600
N287        N  0.48725485  0.93042480  0.43909061    -0.02600
N288        N  0.49656401  0.91471773  0.40220725    -0.58700
Mn289      Mn  0.01402985  0.97707297  0.49624571     1.18400
C290        C  0.46885322  0.90485713  0.38301928     0.99600
C291        C  0.48255638  0.90336448  0.10108333     1.00300
N292        N  0.48381923  0.56821390  0.44153973    -0.04900
N293        N  0.49256424  0.58466202  0.40518678    -0.61200
N294        N  0.46087304  0.56399908  0.05089560    -0.03700
N295        N  0.45144462  0.58081152  0.08673247    -0.61900
N296        N  0.49218061  0.56431910  0.04797717    -0.04400
N297        N  0.50469041  0.58070280  0.08203112    -0.61500
N298        N  0.45258414  0.56781462  0.44495734    -0.03300
N299        N  0.43935502  0.58343467  0.41066516    -0.62100
Mn300      Mn  0.01760899  0.56120657  0.49161458     1.10700
C301        C  0.46452114  0.59399896  0.38645328     1.00800
C302        C  0.47914386  0.59105531  0.10563933     1.00900
N303        N  0.40578503  0.97758969  0.05568007    -0.04400
N304        N  0.39231592  0.96421142  0.09149038    -0.59800
N305        N  0.40089201  0.51571438  0.45005915    -0.03700
N306        N  0.38491432  0.52731959  0.41495602    -0.56500
N307        N  0.40075391  0.98028029  0.44973017    -0.05000
N308        N  0.38368797  0.96986288  0.41458961    -0.59300
N309        N  0.40842773  0.50885445  0.05359749    -0.04000
N310        N  0.39249841  0.51826457  0.09027769    -0.56500
Mn311      Mn  0.43041623  0.95322149  0.49891017     1.20200
Mn312      Mn  0.42838570  0.54269837  0.50066762     1.10100
Cl313      Cl  0.47142816  0.50002949  0.49682734    -0.84500
C314        C  0.38442878  0.49063084  0.11102733     0.97800
C315        C  0.37423080  0.50127859  0.39293190     0.97600
C316        C  0.46599901  0.88772032  0.33930414    -0.15000
C317        C  0.48666434  0.86510405  0.32641834    -0.30100
H318        H  0.44494553  0.89229720  0.31850482     0.14100
H319        H  0.50585562  0.85799036  0.34932803     0.14600
C320        C  0.48673030  0.88532855  0.14372971    -0.15000
C321        C  0.46547531  0.86375354  0.15790573    -0.30100
H322        H  0.50838664  0.88926393  0.16345833     0.14100
H323        H  0.44527405  0.85752689  0.13632398     0.14600
C324        C  0.46124310  0.61176913  0.34348632    -0.15000
C325        C  0.48300610  0.63295809  0.32974598    -0.30100
H326        H  0.43967088  0.60825150  0.32340236     0.14100
H327        H  0.50304011  0.63893223  0.35178687     0.14600
C328        C  0.46172653  0.63174784  0.16140827    -0.15000
C329        C  0.48212644  0.60882500  0.14880493    -0.30100
H330        H  0.44249263  0.63885518  0.13857771     0.14100
H331        H  0.50319372  0.60429727  0.16960079     0.14600
C332        C  0.47462431  0.73408832  0.24399594    -0.11800
C333        C  0.47490508  0.76274739  0.24379573    -0.13400
C334        C  0.33790921  0.48058398  0.33319130    -0.15000
C335        C  0.35759971  0.50315648  0.34879224    -0.30100
H336        H  0.32785367  0.95739227  0.35931098     0.14100
H337        H  0.36070753  0.52480388  0.32904577     0.14600
C338        C  0.36738289  0.48761428  0.15468080    -0.15000
C339        C  0.34282529  0.50636116  0.16627433    -0.30100
H340        H  0.37317311  0.46716065  0.17583968     0.14100
H341        H  0.32730537  0.01875646  0.14499749     0.14600
C342        C  0.08329550  0.52122256  0.33359169    -0.15000
C343        C  0.10715655  0.50080322  0.32522949    -0.30100
H344        H  0.07774916  0.53991550  0.30917893     0.14100
H345        H  0.10851719  0.97634509  0.35513585     0.14600
C346        C  0.10906550  0.49981515  0.15406198    -0.15000
C347        C  0.08928462  0.52330078  0.14165211    -0.30100
H348        H  0.10924694  0.97300861  0.13253427     0.14100
H349        H  0.08676214  0.54412456  0.16336462     0.14600
C350        C  0.23355171  0.98309228  0.24717827    -0.11800
C351        C  0.20474795  0.98280681  0.24582292    -0.13400
C352        C  0.17503693  0.00471817  0.74841849     0.04600
C353        C  0.15825683  0.01457833  0.78751603    -0.11500
C354        C  0.12167926  0.49464192  0.78475935     0.02100
C355        C  0.10720224  0.49872051  0.74163512    -0.10100
C356        C  0.12490817  0.49420196  0.70131089     0.04600
C357        C  0.15887530  0.00111336  0.70659403    -0.09500
H358        H  0.17060079  0.01674309  0.82004289     0.10200
H359        H  0.08189400  0.50367264  0.73943680     0.07700
H360        H  0.17180699  0.99337950  0.67647849     0.07600
C361        C  0.27052820  0.98374936  0.75058749     0.04600
C362        C  0.28647866  0.98103141  0.70851895    -0.11500
C363        C  0.31946179  0.47998964  0.70876872     0.02100
C364        C  0.33627447  0.48072206  0.75049330    -0.10100
C365        C  0.32011032  0.47766801  0.79237078     0.04600
C366        C  0.28767666  0.98058226  0.79170902    -0.09500
H367        H  0.27337122  0.98386593  0.67671848     0.10200
H368        H  0.36204878  0.48213324  0.75029443     0.07700
H369        H  0.27548859  0.98272863  0.82423793     0.07600
C370        C  0.47250343  0.69965642  0.74889836     0.04600
C371        C  0.47976982  0.68250802  0.78876289    -0.11500
C372        C  0.47834329  0.64923428  0.78863916     0.02100
C373        C  0.47087758  0.63321674  0.74782338    -0.10100
C374        C  0.46433593  0.65019458  0.70754556     0.04600
C375        C  0.46442487  0.68348174  0.70848792    -0.09500
H376        H  0.48587850  0.69502373  0.82003234     0.10200
H377        H  0.47049100  0.60747862  0.74724725     0.07700
H378        H  0.45931168  0.69672014  0.67747996     0.07600
C379        C  0.47602300  0.79670254  0.74686170     0.04600
C380        C  0.46975953  0.81236012  0.70542103    -0.11500
C381        C  0.47119153  0.84557088  0.70310999     0.02100
C382        C  0.47749008  0.86310126  0.74300821    -0.10100
C383        C  0.48305980  0.84764775  0.78482540     0.04600
C384        C  0.48305667  0.81434982  0.78639182    -0.09500
H385        H  0.46448621  0.79871887  0.67481885     0.10200
H386        H  0.47786080  0.88882100  0.74158140     0.07700
H387        H  0.48751055  0.80226282  0.81855864     0.07600
N388        N  0.04641136  0.53426487  0.54171867    -0.04600
N389        N  0.06184659  0.54526020  0.57791095    -0.56800
N390        N  0.03658964  0.99967552  0.93823335    -0.04300
N391        N  0.05139238  0.98755997  0.90250696    -0.58900
N392        N  0.03749769  0.53565805  0.93649257    -0.03900
N393        N  0.05255459  0.54626591  0.89987623    -0.56700
N394        N  0.04274996  0.00493349  0.54589578    -0.03800
N395        N  0.06009036  0.99519575  0.58122902    -0.59200
C396        C  0.07315911  0.51880622  0.59858605     0.97500
C397        C  0.06312839  0.51950069  0.87916276     0.97300
N398        N  0.45549650  0.93138682  0.94148115    -0.04800
N399        N  0.44325300  0.91549918  0.90672966    -0.57300
N400        N  0.49327191  0.92963858  0.54428028    -0.03000
N401        N  0.50721140  0.91380808  0.57776666    -0.58600
N402        N  0.46202810  0.92774927  0.54763561    -0.04900
N403        N  0.45413725  0.91012778  0.58329450    -0.57600
N404        N  0.48678228  0.93248416  0.93844459    -0.02600
N405        N  0.49648602  0.91686356  0.90171592    -0.58700
Mn406      Mn  0.01306784  0.97356432  0.99363107     1.18400
C407        C  0.46900971  0.90641881  0.88247360     0.99600
C408        C  0.48261714  0.90158363  0.60152880     1.00300
N409        N  0.48807868  0.56480721  0.94254699    -0.04900
N410        N  0.49661003  0.58182001  0.90652234    -0.61200
N411        N  0.45789761  0.56885711  0.55041382    -0.03700
N412        N  0.44896258  0.58515755  0.58691481    -0.61900
N413        N  0.48913796  0.56862273  0.54700060    -0.04400
N414        N  0.50217277  0.58424094  0.58140988    -0.61500
N415        N  0.45679007  0.56365284  0.94549024    -0.03300
N416        N  0.44342947  0.57919956  0.91130324    -0.62100
Mn417      Mn  0.01455640  0.56309293  0.99207768     1.10700
C418        C  0.46839043  0.59060477  0.88757384     1.00800
C419        C  0.47692188  0.59463266  0.60570265     1.00900
N420        N  0.40606701  0.97877650  0.55516963    -0.04400
N421        N  0.39014234  0.96709527  0.59033138    -0.59800
N422        N  0.40572970  0.51043936  0.94728562    -0.03700
N423        N  0.38951492  0.52191410  0.91215136    -0.56500
N424        N  0.39836134  0.97973474  0.95053970    -0.05000
N425        N  0.37924577  0.96839328  0.91838595    -0.59300
N426        N  0.40498021  0.51564769  0.55574844    -0.04000
N427        N  0.38942707  0.52673310  0.59164388    -0.56500
Mn428      Mn  0.42975670  0.95355919  0.99846903     1.20200
Mn429      Mn  0.43207322  0.53752382  0.99978788     1.10100
Cl430      Cl  0.47589424  0.49571765  0.99604172    -0.84500
C431        C  0.37830369  0.50032801  0.61241259     0.97800
C432        C  0.37910534  0.49575770  0.88993903     0.97600
C433        C  0.46662200  0.88866290  0.83928309    -0.15000
C434        C  0.48779753  0.86631484  0.82718363    -0.30100
H435        H  0.44546301  0.89241993  0.81836018     0.14100
H436        H  0.50714045  0.85997385  0.85030008     0.14600
C437        C  0.48691014  0.88390656  0.64446126    -0.15000
C438        C  0.46610747  0.86203517  0.65901712    -0.30100
H439        H  0.50848019  0.88838838  0.66415525     0.14100
H440        H  0.44609082  0.85515852  0.63749192     0.14600
C441        C  0.46440393  0.60835742  0.84463637    -0.15000
C442        C  0.48449681  0.63121815  0.83124373    -0.30100
H443        H  0.44291163  0.60385569  0.82477762     0.14100
H444        H  0.50421007  0.63820762  0.85326069     0.14600
C445        C  0.45889684  0.63308962  0.66402782    -0.15000
C446        C  0.48025911  0.61170696  0.64931204    -0.30100
H447        H  0.43872900  0.63964400  0.64256264     0.14100
H448        H  0.50197166  0.60775317  0.66893304     0.14600
C449        C  0.47380530  0.73386769  0.74921989    -0.11800
C450        C  0.47492983  0.76250861  0.74871580    -0.13400
C451        C  0.33804334  0.47610606  0.83619347    -0.15000
C452        C  0.36111725  0.49701617  0.84646521    -0.30100
H453        H  0.35555273  0.95099191  0.83623577     0.14100
H454        H  0.36585847  0.51663373  0.82332209     0.14600
C455        C  0.36028037  0.50086552  0.65575537    -0.15000
C456        C  0.33671757  0.48019376  0.66448727    -0.30100
H457        H  0.36573876  0.51944726  0.68039257     0.14100
H458        H  0.32700691  0.96160799  0.63509441     0.14600
C459        C  0.08167473  0.51913560  0.83630016    -0.15000
C460        C  0.10268353  0.49583347  0.82739465    -0.30100
H461        H  0.07902738  0.53887715  0.81264840     0.14100
H462        H  0.11703628  0.04238029  0.85331051     0.14600
C463        C  0.10930995  0.49521646  0.65577070    -0.15000
C464        C  0.08970952  0.51891365  0.64322850    -0.30100
H465        H  0.11586054  0.98421935  0.63666450     0.14100
H466        H  0.08604848  0.53901985  0.66596624     0.14600
C467        C  0.23679782  0.99089238  0.75147637    -0.11800
C468        C  0.20868015  0.99733791  0.75109993    -0.13400
C469        C  0.67622063  0.47451734  0.24817007     0.04600
C470        C  0.65863783  0.47578558  0.28894502    -0.11500
C471        C  0.62156569  0.98610826  0.28133337     0.02100
C472        C  0.60603466  0.98763451  0.23866582    -0.10100
C473        C  0.62367426  0.98639126  0.19786508     0.04600
C474        C  0.66017845  0.47433393  0.20590576    -0.09500
H475        H  0.67093773  0.47536174  0.32164878     0.10200
H476        H  0.58023293  0.98820319  0.23717940     0.07700
H477        H  0.67365381  0.47281778  0.17436286     0.07600
C478        C  0.77362045  0.48231241  0.25184207     0.04600
C479        C  0.79046793  0.48648367  0.21086364    -0.11500
C480        C  0.82092666  0.99779594  0.21077822     0.02100
C481        C  0.83605999  0.00123304  0.25354863    -0.10100
C482        C  0.81863943  0.99786400  0.29434819     0.04600
C483        C  0.78986429  0.48413886  0.29383921    -0.09500
H484        H  0.77813824  0.48422236  0.17833784     0.10200
H485        H  0.86160723  0.00477475  0.25512500     0.07700
H486        H  0.77707977  0.48015489  0.32551874     0.07600
C487        C  0.97260182  0.21986422  0.24453022     0.04600
C488        C  0.97984967  0.20342456  0.28500205    -0.11500
C489        C  0.97915224  0.17015495  0.28574651     0.02100
C490        C  0.97258196  0.15343191  0.24527017    -0.10100
C491        C  0.96599473  0.16970699  0.20443850     0.04600
C492        C  0.96529974  0.20299339  0.20442372    -0.09500
H493        H  0.98514395  0.21647770  0.31612535     0.10200
H494        H  0.97259481  0.12768568  0.24554365     0.07700
H495        H  0.96001192  0.21569980  0.17301731     0.07600
C496        C  0.97326163  0.31692462  0.24516824     0.04600
C497        C  0.96636523  0.33403356  0.20514471    -0.11500
C498        C  0.96761455  0.36729760  0.20539606     0.02100
C499        C  0.97423104  0.38333667  0.24640992    -0.10100
C500        C  0.98045375  0.36641021  0.28677289     0.04600
C501        C  0.98065404  0.33312933  0.28582012    -0.09500
H502        H  0.96098021  0.32150430  0.17360829     0.10200
H503        H  0.97457603  0.40907568  0.24692588     0.07700
H504        H  0.98571312  0.31991694  0.31686626     0.07600
N505        N  0.53922488  0.01889216  0.04110431    -0.04600
N506        N  0.55476977  0.03083155  0.07651283    -0.56800
N507        N  0.53907216  0.48414243  0.43920892    -0.04300
N508        N  0.55615850  0.47304662  0.40472362    -0.58900
N509        N  0.53625968  0.01676968  0.43560510    -0.03900
N510        N  0.55035112  0.02890973  0.39925186    -0.56700
N511        N  0.54619197  0.48157941  0.04567723    -0.03800
N512        N  0.56270860  0.47105082  0.08122191    -0.59200
C513        C  0.56793392  0.00515229  0.09686079     0.97500
C514        C  0.56161354  0.00316365  0.37684611     0.97300
N515        N  0.95783694  0.44980254  0.44551381    -0.04800
N516        N  0.94443504  0.43406735  0.41154214    -0.57300
N517        N  0.99156937  0.45270860  0.04959091    -0.03000
N518        N  0.00487640  0.43727306  0.08397617    -0.58600
N519        N  0.96028829  0.45167684  0.05263055    -0.04900
N520        N  0.95166560  0.43504939  0.08887166    -0.57600
N521        N  0.98908257  0.44967658  0.44138196    -0.02600
N522        N  0.99758015  0.43331154  0.40471691    -0.58700
Mn523      Mn  0.51500798  0.45742321  0.49451231     1.18400
C524        C  0.96940291  0.42371686  0.38671342     0.99600
C525        C  0.97977667  0.42622994  0.10787071     1.00300
N526        N  0.98539139  0.08807656  0.44185507    -0.04900
N527        N  0.99454922  0.10397247  0.40517846    -0.61200
N528        N  0.95896127  0.08590916  0.05052556    -0.03700
N529        N  0.95018575  0.10265719  0.08666218    -0.61900
N530        N  0.99022402  0.08507083  0.04739309    -0.04400
N531        N  0.00340188  0.10075322  0.08162665    -0.61500
N532        N  0.95413739  0.08829805  0.44512944    -0.03300
N533        N  0.94131302  0.10381421  0.41047121    -0.62100
Mn534      Mn  0.51265506  0.04221065  0.49218169     1.10700
C535        C  0.96671371  0.11363829  0.38615177     1.00800
C536        C  0.97823150  0.11176753  0.10550579     1.00900
N537        N  0.90616869  0.50376605  0.05805691    -0.04400
N538        N  0.89003046  0.49257868  0.09328357    -0.59800
N539        N  0.90081599  0.03702202  0.45074658    -0.03700
N540        N  0.88452458  0.04791439  0.41525917    -0.56500
N541        N  0.90406399  0.50107799  0.45184388    -0.05000
N542        N  0.88684141  0.48990180  0.41744324    -0.59300
N543        N  0.90527370  0.03371615  0.05686494    -0.04000
N544        N  0.89046276  0.04509445  0.09325157    -0.56500
Mn545      Mn  0.93343347  0.47445864  0.50160161     1.20200
Mn546      Mn  0.92917526  0.06422951  0.50109832     1.10100
Cl547      Cl  0.97140484  0.02062091  0.49825953    -0.84500
C548        C  0.87979088  0.01883398  0.11495879     0.97800
C549        C  0.87308185  0.02139877  0.39493406     0.97600
C550        C  0.96554990  0.40618867  0.34367098    -0.15000
C551        C  0.98603581  0.38366205  0.33006932    -0.30100
H552        H  0.94409060  0.41071280  0.32371214     0.14100
H553        H  0.00576181  0.37661534  0.35206207     0.14600
C554        C  0.98319297  0.40825225  0.15056982    -0.15000
C555        C  0.96272082  0.38535090  0.16263345    -0.30100
H556        H  0.00421151  0.41274405  0.17145665     0.14100
H557        H  0.94355887  0.37847495  0.13954363     0.14600
C558        C  0.96363854  0.13057928  0.34251030    -0.15000
C559        C  0.98438343  0.15284253  0.32908868    -0.30100
H560        H  0.94243977  0.12601541  0.32206111     0.14100
H561        H  0.00378178  0.15997573  0.35157778     0.14600
C562        C  0.96074115  0.15186331  0.16154920    -0.15000
C563        C  0.98163203  0.12954782  0.14843351    -0.30100
H564        H  0.94105113  0.15849614  0.13923792     0.14100
H565        H  0.00301299  0.12539629  0.16869821     0.14600
C566        C  0.97270864  0.25407179  0.24423761    -0.11800
C567        C  0.97290271  0.28272043  0.24449194    -0.13400
C568        C  0.83502887  0.99833846  0.33941102    -0.15000
C569        C  0.85532248  0.02161173  0.35118300    -0.30100
H570        H  0.83597939  0.47230557  0.36294247     0.14100
H571        H  0.85863360  0.04169448  0.32835543     0.14600
C572        C  0.86174387  0.01954964  0.15826008    -0.15000
C573        C  0.83949078  0.99764261  0.16768793    -0.30100
H574        H  0.86572412  0.03917303  0.18176715     0.14100
H575        H  0.83599701  0.47778850  0.14209255     0.14600
C576        C  0.57942544  0.00485824  0.33358914    -0.15000
C577        C  0.60314970  0.98447278  0.32434064    -0.30100
H578        H  0.57414117  0.02415767  0.31005770     0.14100
H579        H  0.61354909  0.46166744  0.35752159     0.14600
C580        C  0.60724611  0.98500877  0.15294562    -0.15000
C581        C  0.58541178  0.00674823  0.14072992    -0.30100
H582        H  0.61599090  0.45722002  0.13554712     0.14100
H583        H  0.58071160  0.02679845  0.16319622     0.14600
C584        C  0.73949477  0.47718387  0.25078247    -0.11800
C585        C  0.71073173  0.47486312  0.24966166    -0.13400
C586        C  0.67675528  0.49245067  0.74285150     0.04600
C587        C  0.66003698  0.50100530  0.78254292    -0.11500
C588        C  0.62200730  0.98612934  0.78361700     0.02100
C589        C  0.60661863  0.98642426  0.74079067    -0.10100
C590        C  0.62429304  0.98312217  0.70018633     0.04600
C591        C  0.66005091  0.48618220  0.70212310    -0.09500
H592        H  0.67295537  0.50557084  0.81408524     0.10200
H593        H  0.58084524  0.98767547  0.73917497     0.07700
H594        H  0.67298688  0.47993720  0.67131857     0.07600
C595        C  0.77427088  0.49147685  0.74764893     0.04600
C596        C  0.79230009  0.49307986  0.70738614    -0.11500
C597        C  0.82042972  0.99949873  0.70903794     0.02100
C598        C  0.83607924  0.00201106  0.75152999    -0.10100
C599        C  0.81938195  0.99663202  0.79248248     0.04600
C600        C  0.78966058  0.49195702  0.79031753    -0.09500
H601        H  0.78045450  0.49203116  0.67435846     0.10200
H602        H  0.86152151  0.00631119  0.75261230     0.07700
H603        H  0.77580819  0.49011671  0.82147939     0.07600
C604        C  0.97284156  0.22097291  0.74933692     0.04600
C605        C  0.97904392  0.20372642  0.78950125    -0.11500
C606        C  0.97816853  0.17041301  0.78897542     0.02100
C607        C  0.97234025  0.15449319  0.74754052    -0.10100
C608        C  0.96667553  0.17158969  0.70709087     0.04600
C609        C  0.96630880  0.20486825  0.70832052    -0.09500
H610        H  0.98385252  0.21618359  0.82127815     0.10200
H611        H  0.97225729  0.12875532  0.74672814     0.07700
H612        H  0.96179663  0.21817470  0.67718509     0.07600
C613        C  0.97501458  0.31812489  0.74935612     0.04600
C614        C  0.96943429  0.33453697  0.70831370    -0.11500
C615        C  0.97111964  0.36779009  0.70719112     0.02100
C616        C  0.97694537  0.38460558  0.74787778    -0.10100
C617        C  0.98177224  0.36835589  0.78927724     0.04600
C618        C  0.98152463  0.33505648  0.78968254    -0.09500
H619        H  0.96454339  0.32144511  0.67708905     0.10200
H620        H  0.97752370  0.41033874  0.74739703     0.07700
H621        H  0.98550782  0.32240617  0.82152592     0.07600
N622        N  0.54198043  0.01568297  0.54155867    -0.04600
N623        N  0.55724157  0.02720972  0.57745632    -0.56800
N624        N  0.54308285  0.48110249  0.93996356    -0.04300
N625        N  0.55770187  0.46931755  0.90393143    -0.58900
N626        N  0.53370690  0.01973042  0.93487183    -0.03900
N627        N  0.54881293  0.03198348  0.89933753    -0.56700
N628        N  0.54270263  0.48571373  0.54470670    -0.03800
N629        N  0.56032797  0.47609714  0.57976383    -0.59200
C630        C  0.56940302  0.00121839  0.59814637     0.97500
C631        C  0.56152435  0.00635159  0.87803152     0.97300
N632        N  0.95451131  0.45161891  0.94737361    -0.04800
N633        N  0.94162643  0.43555409  0.91323931    -0.57300
N634        N  0.99584783  0.44983996  0.54671850    -0.03000
N635        N  0.00946233  0.43427444  0.58080365    -0.58600
N636        N  0.96459878  0.44902386  0.55058564    -0.04900
N637        N  0.95634003  0.43241296  0.58704050    -0.57600
N638        N  0.98580372  0.45129400  0.94429083    -0.02600
N639        N  0.99485395  0.43461471  0.90822284    -0.58700
Mn640      Mn  0.51957750  0.45401097  0.99383193     1.18400
C641        C  0.96699838  0.42492963  0.88937249     0.99600
C642        C  0.98459310  0.42335399  0.60540086     1.00300
N643        N  0.98512215  0.08510115  0.94203841    -0.04900
N644        N  0.99412138  0.10170665  0.90589164    -0.61200
N645        N  0.95948922  0.09008772  0.55050511    -0.03700
N646        N  0.95097742  0.10684317  0.58679217    -0.61900
N647        N  0.99074040  0.08895003  0.54726460    -0.04400
N648        N  0.00415384  0.10438907  0.58155574    -0.61500
N649        N  0.95382213  0.08484481  0.94512245    -0.03300
N650        N  0.94088627  0.10067546  0.91080911    -0.62100
Mn651      Mn  0.50883074  0.04451661  0.99167327     1.10700
C652        C  0.96619274  0.11125213  0.88691396     1.00800
C653        C  0.97916294  0.11563897  0.60560506     1.00900
N654        N  0.91031148  0.50138348  0.55736157    -0.04400
N655        N  0.89486370  0.49050907  0.59344329    -0.59800
N656        N  0.90062573  0.03333924  0.95049621    -0.03700
N657        N  0.88499439  0.04457204  0.91467700    -0.56500
N658        N  0.90100005  0.50366318  0.95274362    -0.05000
N659        N  0.88443141  0.49265132  0.91761311    -0.59300
N660        N  0.90528530  0.03825154  0.55703161    -0.04000
N661        N  0.88967688  0.04976426  0.59266632    -0.56500
Mn662      Mn  0.92970657  0.47684597  0.00283615     1.20200
Mn663      Mn  0.92886294  0.06022872  0.00097223     1.10100
Cl664      Cl  0.97093797  0.01692778  0.99720601    -0.84500
C665        C  0.87865679  0.02351652  0.61409511     0.97800
C666        C  0.87370752  0.01829046  0.89368835     0.97600
C667        C  0.96402260  0.40692028  0.84643519    -0.15000
C668        C  0.98624567  0.38621682  0.83234272    -0.30100
H669        H  0.94218794  0.40976015  0.82669638     0.14100
H670        H  0.00673217  0.38089551  0.85389336     0.14600
C671        C  0.98830520  0.40591936  0.64876305    -0.15000
C672        C  0.96662044  0.38492347  0.66347391    -0.30100
H673        H  0.01006717  0.40957978  0.66836350     0.14100
H674        H  0.94633034  0.37888774  0.64195328     0.14600
C675        C  0.96297822  0.12906904  0.84385078    -0.15000
C676        C  0.98314692  0.15226920  0.83180694    -0.30100
H677        H  0.94211593  0.12432970  0.82276491     0.14100
H678        H  0.00208186  0.15943053  0.85509271     0.14600
C679        C  0.96164376  0.15462870  0.66337621    -0.15000
C680        C  0.98285190  0.13301841  0.64893278    -0.30100
H681        H  0.94155356  0.16120526  0.64177719     0.14100
H682        H  0.00447328  0.12890061  0.66869068     0.14600
C683        C  0.97341552  0.25521989  0.75004195    -0.11800
C684        C  0.97406822  0.28388851  0.75001716    -0.13400
C685        C  0.83618749  0.99607293  0.83712515    -0.15000
C686        C  0.85654166  0.01904567  0.84959099    -0.30100
H687        H  0.83424416  0.47575191  0.86117933     0.14100
H688        H  0.85998737  0.03947460  0.82744944     0.14600
C689        C  0.85972107  0.02401691  0.65658235    -0.15000
C690        C  0.83855885  0.00097531  0.66568946    -0.30100
H691        H  0.86268962  0.04376598  0.68017997     0.14100
H692        H  0.83789911  0.47952957  0.64024719     0.14600
C693        C  0.58086265  0.00790402  0.83584806    -0.15000
C694        C  0.60325849  0.98594729  0.82654506    -0.30100
H695        H  0.57723984  0.02775135  0.81263891     0.14100
H696        H  0.61923421  0.52629885  0.84947250     0.14600
C697        C  0.60814286  0.98129607  0.65508867    -0.15000
C698        C  0.58581636  0.00246399  0.64277594    -0.30100
H699        H  0.61540794  0.46467362  0.63507078     0.14100
H700        H  0.58023649  0.02215210  0.66548227     0.14600
C701        C  0.73991310  0.49031410  0.74527559    -0.11800
C702        C  0.71112668  0.49072282  0.74384318    -0.13400
C703        C  0.67278452  0.98454574  0.24253640     0.04600
C704        C  0.65494457  0.98445543  0.28301278    -0.11500
C705        C  0.62525878  0.47843493  0.28767032     0.02100
C706        C  0.60953943  0.47961764  0.24511090    -0.10100
C707        C  0.62682899  0.47706912  0.20414348     0.04600
C708        C  0.65708017  0.98479319  0.20003119    -0.09500
H709        H  0.66703586  0.98355422  0.31586971     0.10200
H710        H  0.58376746  0.48111573  0.24387717     0.07700
H711        H  0.67081755  0.98415755  0.16866929     0.07600
C712        C  0.77019190  0.99013146  0.24948607     0.04600
C713        C  0.78797191  0.99222846  0.20906637    -0.11500
C714        C  0.82308824  0.49398324  0.21164355     0.02100
C715        C  0.83879451  0.49727493  0.25400527    -0.10100
C716        C  0.82242575  0.49178799  0.29519803     0.04600
C717        C  0.78569678  0.99213351  0.29204129    -0.09500
H718        H  0.77611314  0.98985613  0.17618837     0.10200
H719        H  0.86410714  0.50228215  0.25486318     0.07700
H720        H  0.77209368  0.98972448  0.32334183     0.07600
C721        C  0.97352624  0.72090800  0.24917695     0.04600
C722        C  0.98022600  0.70375368  0.28920124    -0.11500
C723        C  0.97932448  0.67048680  0.28874256     0.02100
C724        C  0.97305614  0.65447782  0.24756069    -0.10100
C725        C  0.96698995  0.67149250  0.20717329     0.04600
C726        C  0.96654003  0.70477166  0.20833484    -0.09500
H727        H  0.98531773  0.71624325  0.32086814     0.10200
H728        H  0.97291990  0.62873523  0.24693267     0.07700
H729        H  0.96161898  0.71804478  0.17729839     0.07600
C730        C  0.97295024  0.81793415  0.25060512     0.04600
C731        C  0.96547260  0.83432376  0.21020504    -0.11500
C732        C  0.96499495  0.86759307  0.20979441     0.02100
C733        C  0.97078984  0.88435677  0.25052895    -0.10100
C734        C  0.97765632  0.86808071  0.29133435     0.04600
C735        C  0.97939375  0.83482102  0.29099354    -0.09500
H736        H  0.96078328  0.82125048  0.17889989     0.10200
H737        H  0.96999137  0.91008737  0.25044935     0.07700
H738        H  0.98487155  0.82211331  0.32233344     0.07600
N739        N  0.54547862  0.51281981  0.04553009    -0.04600
N740        N  0.56101579  0.52417402  0.08138664    -0.56800
N741        N  0.53833739  0.98558180  0.43514714    -0.04300
N742        N  0.55432785  0.97586708  0.39884458    -0.58900
N743        N  0.53762429  0.51536288  0.43752799    -0.03900
N744        N  0.55329696  0.52610020  0.40158371    -0.56700
N745        N  0.54210210  0.98777867  0.04020144    -0.03800
N746        N  0.56010959  0.97796236  0.07469355    -0.59200
C747        C  0.57189684  0.49791972  0.10303632     0.97500
C748        C  0.56484190  0.49951196  0.38160990     0.97300
N749        N  0.95239250  0.95251581  0.44889230    -0.04800
N750        N  0.93930089  0.93691748  0.41450582    -0.57300
N751        N  0.98827064  0.94914765  0.04929960    -0.03000
N752        N  0.00138746  0.93397282  0.08404245    -0.58600
N753        N  0.95699104  0.94877999  0.05244230    -0.04900
N754        N  0.94817784  0.93279573  0.08927732    -0.57600
N755        N  0.98370488  0.95104245  0.44662217    -0.02600
N756        N  0.99250853  0.93395414  0.41078876    -0.58700
Mn757      Mn  0.51662491  0.95669292  0.48962994     1.18400
C758        C  0.96449325  0.92528799  0.39130697     0.99600
C759        C  0.97622131  0.92369630  0.10841303     1.00300
N760        N  0.98698530  0.58675602  0.44229071    -0.04900
N761        N  0.99538779  0.60362627  0.40615918    -0.61200
N762        N  0.95926918  0.58873602  0.05190999    -0.03700
N763        N  0.95075969  0.60538030  0.08830154    -0.61900
N764        N  0.99049061  0.58848526  0.04783721    -0.04400
N765        N  0.00391024  0.60440574  0.08164467    -0.61500
N766        N  0.95575547  0.58549104  0.44550363    -0.03300
N767        N  0.94221461  0.60101114  0.41137683    -0.62100
Mn768      Mn  0.51379192  0.54298901  0.49191455     1.10700
C769        C  0.96715345  0.61236017  0.38740614     1.00800
C770        C  0.97893040  0.61500970  0.10628814     1.00900
N771        N  0.90414650  0.00247827  0.05665838    -0.04400
N772        N  0.88814774  0.99198167  0.09246337    -0.59800
N773        N  0.90412408  0.53231055  0.45133987    -0.03700
N774        N  0.88724996  0.54302847  0.41631840    -0.56500
N775        N  0.89995288  0.00579940  0.45166781    -0.05000
N776        N  0.88266410  0.99482916  0.41719119    -0.59300
N777        N  0.90653780  0.53502203  0.05883676    -0.04000
N778        N  0.89100580  0.54571523  0.09506393    -0.56500
Mn779      Mn  0.92763122  0.97883368  0.50309156     1.20200
Mn780      Mn  0.93226354  0.55987712  0.50138046     1.10100
Cl781      Cl  0.97570880  0.51776297  0.49629615    -0.84500
C782        C  0.88072955  0.51899391  0.11605711     0.97800
C783        C  0.87638732  0.51637007  0.39574689     0.97600
C784        C  0.96115280  0.90745137  0.34828958    -0.15000
C785        C  0.98253828  0.88580215  0.33449098    -0.30100
H786        H  0.93954486  0.91117440  0.32832739     0.14100
H787        H  0.00260020  0.87963317  0.35640197     0.14600
C788        C  0.97979085  0.90692289  0.15221742    -0.15000
C789        C  0.95917967  0.88481983  0.16650879    -0.30100
H790        H  0.00127770  0.91147766  0.17207789     0.14100
H791        H  0.93942691  0.87766258  0.14467128     0.14600
C792        C  0.96344185  0.63038295  0.34470503    -0.15000
C793        C  0.98446715  0.65244642  0.33146065    -0.30100
H794        H  0.94190690  0.62653019  0.32466849     0.14100
H795        H  0.00437691  0.65871428  0.35356817     0.14600
C796        C  0.96175381  0.65442804  0.16360656    -0.15000
C797        C  0.98270903  0.63248654  0.14946452    -0.30100
H798        H  0.94181248  0.66119323  0.14184185     0.14100
H799        H  0.00428035  0.62822959  0.16927663     0.14600
C800        C  0.97375507  0.75510011  0.25004980    -0.11800
C801        C  0.97365117  0.78374086  0.25058840    -0.13400
C802        C  0.83961300  0.49206013  0.33961785    -0.15000
C803        C  0.85818993  0.51647189  0.35237124    -0.30100
H804        H  0.82953800  0.97970726  0.36387066     0.14100
H805        H  0.85965520  0.53739649  0.33073196     0.14600
C806        C  0.86215057  0.51875514  0.15895761    -0.15000
C807        C  0.84103273  0.49564135  0.16803301    -0.30100
H808        H  0.86517392  0.53832528  0.18284379     0.14100
H809        H  0.83350890  0.97991750  0.14197546     0.14600
C810        C  0.58354512  0.49966367  0.33890434    -0.15000
C811        C  0.60686648  0.47848978  0.33093855    -0.30100
H812        H  0.57896790  0.51847593  0.31427879     0.14100
H813        H  0.61045374  0.96726012  0.35007543     0.14600
C814        C  0.61004246  0.47609589  0.15945502    -0.15000
C815        C  0.58920769  0.49879583  0.14710230    -0.30100
H816        H  0.61407510  0.96649977  0.12892781     0.14100
H817        H  0.58551401  0.51916488  0.16934657     0.14600
C818        C  0.73594897  0.98660512  0.24712079    -0.11800
C819        C  0.70720737  0.98498612  0.24479619    -0.13400
C820        C  0.67326476  0.98167335  0.74504734     0.04600
C821        C  0.65539199  0.98363126  0.78550622    -0.11500
C822        C  0.62664338  0.50280022  0.78200311     0.02100
C823        C  0.61018904  0.49718686  0.74078970    -0.10100
C824        C  0.62674947  0.48917274  0.70066193     0.04600
C825        C  0.65759521  0.98060083  0.70261643    -0.09500
H826        H  0.66744479  0.98369019  0.81840508     0.10200
H827        H  0.58443615  0.49908757  0.73987617     0.07700
H828        H  0.67134896  0.97853610  0.67138030     0.07600
C829        C  0.77059621  0.98870284  0.74864588     0.04600
C830        C  0.78766890  0.99271665  0.70785198    -0.11500
C831        C  0.82553484  0.49662098  0.70957315     0.02100
C832        C  0.84063661  0.49849661  0.75252576    -0.10100
C833        C  0.82282035  0.49566807  0.79295908     0.04600
C834        C  0.78665914  0.98993417  0.79074791    -0.09500
H835        H  0.77543479  0.99087372  0.67519479     0.10200
H836        H  0.86633230  0.50068018  0.75451647     0.07700
H837        H  0.77362195  0.98610784  0.82225532     0.07600
C838        C  0.97224060  0.71976145  0.74543475     0.04600
C839        C  0.97859223  0.70353442  0.78639340    -0.11500
C840        C  0.97817680  0.67025347  0.78733593     0.02100
C841        C  0.97284882  0.65328557  0.74669952    -0.10100
C842        C  0.96730469  0.66937157  0.70537941     0.04600
C843        C  0.96631432  0.70265558  0.70508758    -0.09500
H844        H  0.98288162  0.71673607  0.81769866     0.10200
H845        H  0.97295468  0.62754130  0.74727468     0.07700
H846        H  0.96163396  0.71519940  0.67335170     0.07600
C847        C  0.96914358  0.81683742  0.74557173     0.04600
C848        C  0.96144138  0.83375668  0.70562138    -0.11500
C849        C  0.96166127  0.86707210  0.70593512     0.02100
C850        C  0.96789301  0.88324670  0.74697797    -0.10100
C851        C  0.97490830  0.86650424  0.78723351     0.04600
C852        C  0.97619998  0.83325433  0.78616079    -0.09500
H853        H  0.95648274  0.82109168  0.67406054     0.10200
H854        H  0.96760746  0.90898793  0.74746891     0.07700
H855        H  0.98197440  0.82018403  0.81708337     0.07600
N856        N  0.54186384  0.51693583  0.54319040    -0.04600
N857        N  0.55836192  0.52919580  0.57735963    -0.56800
N858        N  0.53667334  0.98860690  0.93494055    -0.04300
N859        N  0.55414346  0.97908527  0.89997828    -0.58900
N860        N  0.54326230  0.51233059  0.93901519    -0.03900
N861        N  0.55871988  0.52246122  0.90232370    -0.56700
N862        N  0.54403297  0.98450237  0.54065985    -0.03800
N863        N  0.56123013  0.97422502  0.57572883    -0.59200
C864        C  0.56997416  0.50359331  0.59959158     0.97500
C865        C  0.56759056  0.49519043  0.88102067     0.97300
N866        N  0.95166910  0.94912211  0.94670885    -0.04800
N867        N  0.93851891  0.93429480  0.91168096    -0.57300
N868        N  0.98832475  0.95335890  0.55197087    -0.03000
N869        N  0.00073664  0.93715758  0.58628581    -0.58600
N870        N  0.95697318  0.95318792  0.55416652    -0.04900
N871        N  0.94743017  0.93637929  0.58979067    -0.57600
N872        N  0.98294200  0.94802443  0.94388836    -0.02600
N873        N  0.99173783  0.93191184  0.90715816    -0.58700
Mn874      Mn  0.51545001  0.95933367  0.98923222     1.18400
C875        C  0.96369526  0.92347012  0.88765349     0.99600
C876        C  0.97505300  0.92654485  0.60927168     1.00300
N877        N  0.98396273  0.58850960  0.94284127    -0.04900
N878        N  0.99239980  0.60532229  0.90669282    -0.61200
N879        N  0.96197834  0.58613718  0.55084650    -0.03700
N880        N  0.95295487  0.60223907  0.58744431    -0.61900
N881        N  0.99322988  0.58588012  0.54767108    -0.04400
N882        N  0.00619406  0.60132686  0.58231917    -0.61500
N883        N  0.95274129  0.58786799  0.94667549    -0.03300
N884        N  0.93924056  0.60375196  0.91284046    -0.62100
Mn885      Mn  0.51811429  0.53944070  0.99336933     1.10700
C886        C  0.96420883  0.61466758  0.88847238     1.00800
C887        C  0.98084136  0.61157922  0.60653480     1.00900
N888        N  0.90424214  0.00701798  0.55702023    -0.04400
N889        N  0.88756425  0.99663823  0.59217832    -0.59800
N890        N  0.90111933  0.53490728  0.95253197    -0.03700
N891        N  0.88502783  0.54578940  0.91689504    -0.56500
N892        N  0.89950467  0.00212494  0.95106282    -0.05000
N893        N  0.88270921  0.99148837  0.91587718    -0.59300
N894        N  0.91039306  0.53263567  0.55744132    -0.04000
N895        N  0.89551806  0.54368595  0.59392916    -0.56500
Mn896      Mn  0.92722236  0.97475092  0.00192943     1.20200
Mn897      Mn  0.92908061  0.56240260  0.00282383     1.10100
Cl898      Cl  0.97226398  0.52000422  0.99785545    -0.84500
C899        C  0.88584212  0.51719255  0.61587669     0.97800
C900        C  0.87450445  0.51923445  0.89575203     0.97600
C901        C  0.96028647  0.90667080  0.84392348    -0.15000
C902        C  0.98048330  0.88380503  0.83054059    -0.30100
H903        H  0.93920100  0.91180147  0.82347895     0.14100
H904        H  0.99972189  0.87622659  0.85305021     0.14600
C905        C  0.97763189  0.90812291  0.65171212    -0.15000
C906        C  0.95697924  0.88518400  0.66309930    -0.30100
H907        H  0.99846049  0.91231474  0.67310992     0.14100
H908        H  0.93800537  0.87842564  0.63963181     0.14600
C909        C  0.96060805  0.63258446  0.84563098    -0.15000
C910        C  0.98269874  0.65311885  0.83092251    -0.30100
H911        H  0.93864661  0.62956344  0.82626835     0.14100
H912        H  0.00335784  0.65854360  0.85203920     0.14600
C913        C  0.96282974  0.65144368  0.66237323    -0.15000
C914        C  0.98380595  0.62904039  0.64984447    -0.30100
H915        H  0.94359894  0.65821494  0.63932426     0.14100
H916        H  0.00484340  0.62468599  0.67075213     0.14600
C917        C  0.97134205  0.75397916  0.74494701    -0.11800
C918        C  0.97029516  0.78262519  0.74490126    -0.13400
C919        C  0.83888113  0.49540090  0.83805104    -0.15000
C920        C  0.85749568  0.51952699  0.85154893    -0.30100
H921        H  0.83055617  0.97716824  0.86108266     0.14100
H922        H  0.85987372  0.54034490  0.82986463     0.14600
C923        C  0.86755707  0.51763360  0.65884573    -0.15000
C924        C  0.84435733  0.49647043  0.66680234    -0.30100
H925        H  0.87195346  0.53669546  0.68315354     0.14100
H926        H  0.83369420  0.98292024  0.63997254     0.14600
C927        C  0.58326846  0.49277161  0.83622607    -0.15000
C928        C  0.60909756  0.50971259  0.82492011    -0.30100
H929        H  0.57554797  0.47354656  0.81397997     0.14100
H930        H  0.60876308  0.96775886  0.85177278     0.14600
C931        C  0.60927644  0.48462213  0.65697188    -0.15000
C932        C  0.58785943  0.50622849  0.64285726    -0.30100
H933        H  0.61599673  0.96343867  0.63068806     0.14100
H934        H  0.58427741  0.52767767  0.66293847     0.14600
C935        C  0.73645814  0.98412594  0.74749170    -0.11800
C936        C  0.70771136  0.98201380  0.74676358    -0.13400
loop_ 
_geom_bond_atom_site_label_1 
_geom_bond_atom_site_label_2 
_geom_bond_distance 
_geom_bond_site_symmetry_2 
_ccdc_geom_bond_type 
C1            C2   1.401       .  A
C1            C6   1.400       .  A
C1          C117   1.440       .  S
C2          C237   1.403       .  A
C2            H7   1.085       .  S
C3            C4   1.406       .  A
C3          C236   1.404       .  A
C3          C109   1.483       .  S
C4            C5   1.406       .  A
C4            H8   1.084       .  S
C5          C240   1.403       .  A
C5          C112   1.477       .  S
C6          C239   1.401       .  A
C6            H9   1.085       .  S
C10          C11   1.403       .  A
C10          C15   1.402       .  A
C10         C116   1.440       .  S
C11         C246   1.403       .  A
C11          H16   1.084       .  S
C12          C13   1.404       .  A
C12         C245   1.404       .  A
C12         C105   1.483   1_565  S
C13          C14   1.404       .  A
C13          H17   1.084       .  S
C14         C249   1.404       .  A
C14         C100   1.482       .  S
C15         C248   1.400       .  A
C15          H18   1.085       .  S
C19          C20   1.401       .  A
C19          C24   1.405       .  A
C19          C98   1.443       .  S
C20          C21   1.400       .  A
C20          H25   1.085       .  S
C21          C22   1.402       .  A
C21          C91   1.474       .  S
C22          C23   1.403       .  A
C22          H26   1.084       .  S
C23          C24   1.404       .  A
C23          C94   1.479       .  S
C24          H27   1.084       .  S
C28          C29   1.402       .  A
C28          C33   1.405       .  A
C28          C99   1.443       .  S
C29          C30   1.401       .  A
C29          H34   1.085       .  S
C30          C31   1.405       .  A
C30          C87   1.479       .  S
C31          C32   1.405       .  A
C31          H35   1.084       .  S
C32          C33   1.405       .  A
C32          C83   1.483       .  S
C33          H36   1.084       .  S
N37          N38   1.321       .  A
N37         N277   1.315       .  A
N37        Mn183   2.202   1_554  S
N38          C45   1.352       .  A
N39          N40   1.321       .  A
N39         N275   1.316       .  A
N39         Mn55   2.210       .  S
N40         C280   1.354       .  A
N41          N42   1.321       .  A
N41         N273   1.316       .  A
N41         Mn66   2.211       .  S
N42          C46   1.353       .  A
N43          N44   1.321       .  A
N43         N271   1.315       .  A
N43        Mn172   2.202   1_554  S
N44         C279   1.354       .  A
C45         C113   1.472       .  S
C45         N278   1.352   1_545  A
C46         C108   1.476       .  S
C46         N274   1.354   1_545  A
N47          N53   1.318       .  A
N47          N48   1.319       .  A
N47         Mn77   2.208       .  S
N48          C56   1.350       .  A
N49          N50   1.318       .  A
N49          N51   1.315       .  A
N49        Mn640   2.195   1_554  S
N50          C57   1.349       .  A
N51          N52   1.323       .  A
N51        Mn194   2.208   1_554  S
N52          C57   1.355       .  A
N53          N54   1.324       .  A
N53        Mn523   2.218       .  S
N54          C56   1.355       .  A
Mn55        N160   2.203       .  S
Mn55        N634   2.204   1_455  S
Mn55        N521   2.212   1_455  S
Mn55       Cl781   2.556   1_455  S
C56          C82   1.474       .  S
C57          C86   1.470       .  S
N58          N59   1.322       .  A
N58          N64   1.315       .  A
N58        Mn534   2.203       .  S
N59          C67   1.354       .  A
N60          N62   1.316       .  A
N60          N61   1.323       .  A
N60        Mn195   2.206       .  S
N61          C68   1.354       .  A
N62          N63   1.318       .  A
N62        Mn651   2.199   1_554  S
N63          C68   1.349       .  A
N64          N65   1.318       .  A
N64         Mn78   2.189       .  S
N65          C67   1.348       .  A
Mn66        N154   2.199       .  S
Mn66        N526   2.203   1_455  S
Mn66        N647   2.198   1_455  S
Mn66       Cl547   2.541   1_455  S
C67          C90   1.466       .  S
C68          C95   1.468       .  S
N69          N70   1.317       .  A
N69         N309   1.317       .  A
N69        Mn194   2.193   1_554  S
N70         C314   1.347       .  A
N71          N72   1.318       .  A
N71         N307   1.316   1_545  A
N71         Mn78   2.196       .  S
N72          C81   1.349   1_545  A
N73          N74   1.323       .  A
N73         N305   1.315       .  A
N73         Mn77   2.205       .  S
N74         C315   1.355       .  A
N75          N76   1.324       .  A
N75         N303   1.317   1_545  A
N75        Mn195   2.214       .  S
N76          C80   1.356   1_545  A
Mn77        N168   2.204       .  S
Mn77        N186   2.219       .  S
Mn77       Cl313   2.554       .  S
Mn78        N177   2.204       .  S
Mn78        N192   2.198       .  S
Mn78        Cl79   2.542   1_545  S
Cl79       Mn757   2.555       .  S
Cl79       Mn534   2.547   1_565  S
Cl79       Mn311   2.557       .  S
C80         C104   1.470       .  S
C80         N304   1.349       .  A
C81         C101   1.471       .  S
C81         N308   1.356       .  A
C82          C83   1.343       .  D
C82          H84   1.087       .  S
C83          H85   1.087       .  S
C86          C87   1.341       .  D
C86          H88   1.087       .  S
C87          H89   1.087       .  S
C90          C91   1.339       .  D
C90          H92   1.087       .  S
C91          H93   1.087       .  S
C94          C95   1.342       .  D
C94          H96   1.087       .  S
C95          H97   1.087       .  S
C98          C99   1.208       .  T
C100        C101   1.342       .  D
C100        H336   1.086       .  S
C101        H103   1.087   1_565  S
H102        C334   1.087       .  S
C104        C105   1.343   1_565  D
C104        H106   1.087       .  S
C105        H341   1.087       .  S
H107        C339   1.087       .  S
C108        C109   1.343   1_545  D
C108        H110   1.087       .  S
C109        H345   1.087       .  S
H111        C343   1.087       .  S
C112        C113   1.341   1_565  D
C112        H348   1.087       .  S
C113        H115   1.087       .  S
H114        C346   1.087       .  S
C116        C117   1.206       .  T
C118        C119   1.402       .  A
C118        C123   1.402       .  A
C118        C234   1.447       .  S
C119        C354   1.405       .  A
C119        H124   1.084       .  S
C120        C353   1.406       .  A
C120        C121   1.406       .  A
C120        C226   1.486       .  S
C121        C122   1.406       .  A
C121        H125   1.084       .  S
C122        C357   1.403       .  A
C122        C229   1.486       .  S
C123        C356   1.404       .  A
C123        H126   1.085       .  S
C127        C128   1.404       .  A
C127        C132   1.404       .  A
C127        C233   1.448       .  S
C128        C363   1.405       .  A
C128        H133   1.084       .  S
C129        C362   1.405       .  A
C129        C130   1.402       .  A
C129        C222   1.481       .  S
C130        C131   1.399       .  A
C130        H134   1.085       .  S
C131        C366   1.406       .  A
C131        C217   1.476       .  S
C132        C365   1.405       .  A
C132        H135   1.084       .  S
C136        C137   1.403       .  A
C136        C141   1.402       .  A
C136        C215   1.442       .  S
C137        C138   1.403       .  A
C137        H142   1.084       .  S
C138        C139   1.403       .  A
C138        C208   1.475       .  S
C139        C140   1.403       .  A
C139        H143   1.084       .  S
C140        C141   1.402       .  A
C140        C211   1.477       .  S
C141        H144   1.084       .  S
C145        C146   1.403       .  A
C145        C150   1.401       .  A
C145        C216   1.442       .  S
C146        C147   1.404       .  A
C146        H151   1.084       .  S
C147        C148   1.405       .  A
C147        C204   1.480       .  S
C148        C149   1.405       .  A
C148        H152   1.084       .  S
C149        C150   1.401       .  A
C149        C200   1.477       .  S
C150        H153   1.085       .  S
N154        N155   1.318       .  A
N154        N394   1.316       .  A
N155        C162   1.349       .  A
N156        N392   1.316       .  A
N156        N157   1.321       .  A
N156       Mn172   2.203       .  S
N157        C397   1.353       .  A
N158        N390   1.316   1_545  A
N158        N159   1.325       .  A
N158       Mn183   2.222       .  S
N159        C163   1.356       .  A
N160        N388   1.316       .  A
N160        N161   1.321       .  A
N161        C396   1.353       .  A
C162        C230   1.475       .  S
C162        N395   1.357   1_545  A
C163        C225   1.473       .  S
C163        N391   1.349   1_545  A
N164        N170   1.316       .  A
N164        N165   1.322       .  A
N164       Mn194   2.204       .  S
N165        C173   1.354       .  A
N166        N167   1.322       .  A
N166        N168   1.318       .  A
N166       Mn523   2.215       .  S
N167        C174   1.353       .  A
N168        N169   1.321       .  A
N169        C174   1.352       .  A
N170        N171   1.320       .  A
N170       Mn640   2.202       .  S
N171        C173   1.350       .  A
Mn172       N517   2.197   1_456  S
Mn172       N638   2.208   1_455  S
Mn172      Cl898   2.552   1_455  S
C173        C199   1.471       .  S
C174        C203   1.473       .  S
N175        N176   1.321       .  A
N175        N181   1.317       .  A
N175       Mn651   2.204       .  S
N176        C184   1.353       .  A
N177        N179   1.315       .  A
N177        N178   1.322       .  A
N178        C185   1.354       .  A
N179        N180   1.320       .  A
N179       Mn534   2.200       .  S
N180        C185   1.351       .  A
N181        N182   1.320       .  A
N181       Mn195   2.205   1_556  S
N182        C184   1.351       .  A
Mn183       N643   2.213   1_455  S
Mn183       N530   2.198   1_456  S
Mn183      Cl664   2.559   1_455  S
C184        C207   1.469       .  S
C185        C212   1.471       .  S
N186        N187   1.323       .  A
N186        N426   1.317       .  A
N187        C431   1.355       .  A
N188        N189   1.320       .  A
N188        N424   1.315   1_545  A
N188       Mn195   2.195   1_556  S
N189        C198   1.350   1_545  A
N190        N422   1.317       .  A
N190        N191   1.324       .  A
N190       Mn194   2.217       .  S
N191        C432   1.355       .  A
N192        N420   1.317   1_545  A
N192        N193   1.320       .  A
N193        C197   1.350   1_545  A
Mn194      Cl430   2.562       .  S
Mn195      Cl196   2.564   1_544  S
Cl196      Mn874   2.563       .  S
Cl196      Mn651   2.539   1_565  S
Cl196      Mn428   2.538       .  S
C197        C221   1.471       .  S
C197        N421   1.355       .  A
C198        C218   1.474       .  S
C198        N425   1.355       .  A
C199        C200   1.340       .  D
C199        H201   1.087       .  S
C200        H202   1.087       .  S
C203        C204   1.343       .  D
C203        H205   1.087       .  S
C204        H206   1.087       .  S
C207        C208   1.341       .  D
C207        H209   1.087       .  S
C208        H210   1.087       .  S
C211        C212   1.342       .  D
C211        H213   1.087       .  S
C212        H214   1.087       .  S
C215        C216   1.208       .  T
C217        C218   1.340       .  D
C217        H453   1.087       .  S
C218        H220   1.087   1_565  S
H219        C451   1.087       .  S
C221        C222   1.343       .  D
C221        H223   1.086   1_565  S
C222        H458   1.086       .  S
H224        C456   1.087       .  S
C225        C226   1.344       .  D
C225        H227   1.086   1_545  S
C226        H462   1.086       .  S
H228        C460   1.087       .  S
C229        C230   1.342       .  D
C229        H465   1.086   1_545  S
C230        H232   1.086       .  S
H231        C463   1.087       .  S
C233        C234   1.211       .  T
C235        C236   1.403       .  A
C235        C240   1.402       .  A
C235        C351   1.445       .  S
C236        H241   1.084       .  S
C237        C238   1.405       .  A
C237        C343   1.479       .  S
C238        C239   1.404       .  A
C238        H242   1.084       .  S
C239        C346   1.475       .  S
C240        H243   1.085       .  S
C244        C245   1.404       .  A
C244        C249   1.404       .  A
C244        C350   1.445       .  S
C245        H250   1.084       .  S
C246        C247   1.404       .  A
C246        C339   1.482       .  S
C247        C248   1.404       .  A
C247        H251   1.084       .  S
C248        C334   1.476       .  S
C249        H252   1.084       .  S
C253        C254   1.402       .  A
C253        C258   1.404       .  A
C253        C332   1.441       .  S
C254        C255   1.401       .  A
C254        H259   1.085       .  S
C255        C256   1.403       .  A
C255        C325   1.476       .  S
C256        C257   1.403       .  A
C256        H260   1.084       .  S
C257        C258   1.403       .  A
C257        C328   1.480       .  S
C258        H261   1.084       .  S
C262        C263   1.402       .  A
C262        C267   1.403       .  A
C262        C333   1.441       .  S
C263        C264   1.402       .  A
C263        H268   1.085       .  S
C264        C265   1.404       .  A
C264        C321   1.476       .  S
C265        C266   1.404       .  A
C265        H269   1.084       .  S
C266        C267   1.403       .  A
C266        C317   1.479       .  S
C267        H270   1.084       .  S
N271        N272   1.320       .  A
N271       Mn417   2.199   1_554  S
N272        C279   1.350       .  A
N273        N274   1.322   1_545  A
N273       Mn289   2.207   1_545  S
N275        N276   1.321       .  A
N275       Mn300   2.204       .  S
N276        C280   1.351       .  A
N277        N278   1.320   1_545  A
N277       Mn406   2.202   1_544  S
C279        C347   1.470       .  S
C280        C342   1.471       .  S
N281        N287   1.318       .  A
N281        N282   1.319       .  A
N281       Mn311   2.202       .  S
N282        C290   1.349       .  A
N283        N284   1.320       .  A
N283        N285   1.316       .  A
N283       Mn874   2.195   1_554  S
N284        C291   1.350       .  A
N285        N286   1.321       .  A
N285       Mn428   2.206   1_554  S
N286        C291   1.353       .  A
N287        N288   1.323       .  A
N287       Mn757   2.216       .  S
N288        C290   1.355       .  A
Mn289       N394   2.219   1_565  S
Mn289       N868   2.197   1_455  S
Mn289       N755   2.216   1_455  S
Mn289      Cl547   2.560   1_465  S
C290        C316   1.471       .  S
C291        C320   1.469       .  S
N292        N293   1.322       .  A
N292        N298   1.315       .  A
N292       Mn768   2.204       .  S
N293        C301   1.354       .  A
N294        N296   1.317       .  A
N294        N295   1.324       .  A
N294       Mn429   2.218   1_554  S
N295        C302   1.356       .  A
N296        N297   1.318       .  A
N296       Mn885   2.198   1_554  S
N297        C302   1.348       .  A
N298        N299   1.319       .  A
N298       Mn312   2.194       .  S
N299        C301   1.349       .  A
Mn300       N388   2.208       .  S
Mn300       N760   2.207   1_455  S
Mn300       N881   2.194   1_455  S
Mn300      Cl781   2.544   1_455  S
C301        C324   1.468       .  S
C302        C329   1.471       .  S
N303        N304   1.318       .  A
N303       Mn428   2.198   1_554  S
N305        N306   1.317       .  A
N305       Mn312   2.190       .  S
N306        C315   1.348       .  A
N307        N308   1.324       .  A
N307       Mn311   2.213       .  S
N309        N310   1.325       .  A
N309       Mn429   2.221   1_554  S
N310        C314   1.357       .  A
Mn311       N402   2.218       .  S
Mn311       N420   2.215       .  S
Mn312       N411   2.202       .  S
Mn312       N426   2.207       .  S
Mn312      Cl313   2.548       .  S
Cl313      Mn523   2.561       .  S
Cl313      Mn768   2.543       .  S
C314        C338   1.470       .  S
C315        C335   1.466       .  S
C316        C317   1.341       .  D
C316        H318   1.087       .  S
C317        H319   1.087       .  S
C320        C321   1.341       .  D
C320        H322   1.087       .  S
C321        H323   1.087       .  S
C324        C325   1.341       .  D
C324        H326   1.087       .  S
C325        H327   1.087       .  S
C328        C329   1.341       .  D
C328        H330   1.087       .  S
C329        H331   1.087       .  S
C332        C333   1.207       .  T
C334        C335   1.339       .  D
C335        H337   1.087       .  S
C338        C339   1.341       .  D
C338        H340   1.087       .  S
C342        C343   1.342       .  D
C342        H344   1.087       .  S
C346        C347   1.339       .  D
C347        H349   1.087       .  S
C350        C351   1.209       .  T
C352        C353   1.406       .  A
C352        C357   1.403       .  A
C352        C468   1.447   1_545  S
C353        H358   1.084       .  S
C354        C355   1.407       .  A
C354        C460   1.482       .  S
C355        C356   1.407       .  A
C355        H359   1.084       .  S
C356        C463   1.481       .  S
C357        H360   1.085   1_545  S
C361        C362   1.406       .  A
C361        C366   1.404       .  A
C361        C467   1.447       .  S
C362        H367   1.084       .  S
C363        C364   1.406       .  A
C363        C456   1.484       .  S
C364        C365   1.407       .  A
C364        H368   1.083       .  S
C365        C451   1.484       .  S
C366        H369   1.084       .  S
C370        C371   1.403       .  A
C370        C375   1.403       .  A
C370        C449   1.442       .  S
C371        C372   1.403       .  A
C371        H376   1.084       .  S
C372        C373   1.404       .  A
C372        C442   1.480       .  S
C373        C374   1.403       .  A
C373        H377   1.084       .  S
C374        C375   1.402       .  A
C374        C445   1.478       .  S
C375        H378   1.084       .  S
C379        C380   1.403       .  A
C379        C384   1.403       .  A
C379        C450   1.442       .  S
C380        C381   1.402       .  A
C380        H385   1.084       .  S
C381        C382   1.404       .  A
C381        C438   1.478       .  S
C382        C383   1.403       .  A
C382        H386   1.084       .  S
C383        C384   1.403       .  A
C383        C434   1.478       .  S
C384        H387   1.084       .  S
N388        N389   1.322       .  A
N389        C396   1.352       .  A
N390        N391   1.318       .  A
N390       Mn406   2.195       .  S
N392        N393   1.323       .  A
N392       Mn417   2.214       .  S
N393        C397   1.354       .  A
N394        N395   1.325   1_545  A
C396        C464   1.475       .  S
C397        C459   1.476       .  S
N398        N404   1.317       .  A
N398        N399   1.318       .  A
N398       Mn428   2.194       .  S
N399        C407   1.349       .  A
N400        N401   1.319       .  A
N400        N402   1.318       .  A
N400       Mn757   2.196       .  S
N401        C408   1.349       .  A
N402        N403   1.323       .  A
N403        C408   1.355       .  A
N404        N405   1.323       .  A
N404       Mn874   2.217       .  S
N405        C407   1.355       .  A
Mn406       N751   2.191   1_456  S
Mn406       N872   2.203   1_455  S
Mn406      Cl664   2.542   1_465  S
C407        C433   1.469       .  S
C408        C437   1.469       .  S
N409        N410   1.324       .  A
N409        N415   1.317       .  A
N409       Mn885   2.218       .  S
N410        C418   1.356       .  A
N411        N413   1.315       .  A
N411        N412   1.322       .  A
N412        C419   1.354       .  A
N413        N414   1.318       .  A
N413       Mn768   2.197       .  S
N414        C419   1.349       .  A
N415        N416   1.317       .  A
N415       Mn429   2.195       .  S
N416        C418   1.347       .  A
Mn417       N877   2.201   1_455  S
Mn417       N764   2.195   1_456  S
Mn417      Cl898   2.547   1_455  S
C418        C441   1.469       .  S
C419        C446   1.469       .  S
N420        N421   1.323       .  A
N422        N423   1.321       .  A
N422       Mn429   2.205       .  S
N423        C432   1.350       .  A
N424        N425   1.322       .  A
N424       Mn428   2.212       .  S
N426        N427   1.321       .  A
N427        C431   1.352       .  A
Mn429      Cl430   2.546       .  S
Cl430      Mn640   2.537       .  S
Cl430      Mn885   2.559       .  S
C431        C455   1.477       .  S
C432        C452   1.476       .  S
C433        C434   1.341       .  D
C433        H435   1.088       .  S
C434        H436   1.087       .  S
C437        C438   1.341       .  D
C437        H439   1.087       .  S
C438        H440   1.087       .  S
C441        C442   1.340       .  D
C441        H443   1.087       .  S
C442        H444   1.087       .  S
C445        C446   1.341       .  D
C445        H447   1.087       .  S
C446        H448   1.087       .  S
C449        C450   1.207       .  T
C451        C452   1.343       .  D
C452        H454   1.087       .  S
C455        C456   1.344       .  D
C455        H457   1.087       .  S
C459        C460   1.344       .  D
C459        H461   1.087       .  S
C463        C464   1.342       .  D
C464        H466   1.087       .  S
C467        C468   1.210       .  T
C469        C470   1.404       .  A
C469        C474   1.404       .  A
C469        C585   1.449       .  S
C470        C705   1.405       .  A
C470        H475   1.084       .  S
C471        C704   1.403       .  A
C471        C472   1.406       .  A
C471        C577   1.479       .  S
C472        C473   1.406       .  A
C472        H476   1.084       .  S
C473        C708   1.405       .  A
C473        C580   1.481       .  S
C474        C707   1.405       .  A
C474        H477   1.084       .  S
C478        C479   1.404       .  A
C478        C483   1.403       .  A
C478        C584   1.449       .  S
C479        C714   1.405       .  A
C479        H484   1.084       .  S
C480        C713   1.404       .  A
C480        C481   1.407   1_565  A
C480        C573   1.482       .  S
C481        C482   1.408   1_545  A
C481        H485   1.083       .  S
C482        C717   1.405       .  A
C482        C568   1.483       .  S
C483        C716   1.405       .  A
C483        H486   1.085       .  S
C487        C488   1.403       .  A
C487        C492   1.403       .  A
C487        C566   1.441       .  S
C488        C489   1.402       .  A
C488        H493   1.084       .  S
C489        C490   1.402       .  A
C489        C559   1.477       .  S
C490        C491   1.402       .  A
C490        H494   1.084       .  S
C491        C492   1.402       .  A
C491        C562   1.476       .  S
C492        H495   1.084       .  S
C496        C497   1.403       .  A
C496        C501   1.403       .  A
C496        C567   1.441       .  S
C497        C498   1.402       .  A
C497        H502   1.084       .  S
C498        C499   1.402       .  A
C498        C555   1.476       .  S
C499        C500   1.402       .  A
C499        H503   1.084       .  S
C500        C501   1.402       .  A
C500        C551   1.476       .  S
C501        H504   1.084       .  S
N505        N506   1.320       .  A
N505        N745   1.316   1_545  A
N505       Mn651   2.205   1_554  S
N506        C513   1.351       .  A
N507        N743   1.317       .  A
N507        N508   1.323       .  A
N507       Mn523   2.217       .  S
N508        C748   1.355       .  A
N509        N741   1.316   1_545  A
N509        N510   1.321       .  A
N509       Mn534   2.205       .  S
N510        C514   1.351       .  A
N511        N739   1.316       .  A
N511        N512   1.323       .  A
N511       Mn640   2.209   1_554  S
N512        C747   1.354       .  A
C513        C581   1.476       .  S
C513        N746   1.355   1_545  A
C514        C576   1.472       .  S
C514        N742   1.353   1_545  A
N515        N521   1.317       .  A
N515        N516   1.318       .  A
N515       Mn545   2.194       .  S
N516        C524   1.348       .  A
N517        N518   1.319   1_655  A
N517        N519   1.317       .  A
N518        C525   1.349   1_455  A
N519        N520   1.322       .  A
N519       Mn662   2.207       .  S
N520        C525   1.353       .  A
N521        N522   1.323       .  A
N522        C524   1.355       .  A
Mn523       N628   2.216       .  S
C524        C550   1.466       .  S
C525        C554   1.466       .  S
N526        N527   1.322       .  A
N526        N532   1.315       .  A
N527        C535   1.354       .  A
N528        N530   1.316       .  A
N528        N529   1.322       .  A
N528       Mn663   2.202       .  S
N529        C536   1.353       .  A
N530        N531   1.318   1_655  A
N531        C536   1.349   1_455  A
N532        N533   1.318       .  A
N532       Mn546   2.194       .  S
N533        C535   1.349       .  A
Mn534       N622   2.197       .  S
C535        C558   1.466       .  S
C536        C563   1.466       .  S
N537        N538   1.321       .  A
N537        N777   1.317       .  A
N537       Mn662   2.206       .  S
N538        C782   1.353       .  A
N539        N540   1.322       .  A
N539        N775   1.316       .  A
N539       Mn546   2.209       .  S
N540        C549   1.352       .  A
N541        N773   1.315       .  A
N541        N542   1.322       .  A
N541       Mn545   2.207       .  S
N542        C783   1.354       .  A
N543        N771   1.316       .  A
N543        N544   1.322       .  A
N543       Mn663   2.216       .  S
N544        C548   1.353       .  A
Mn545       N636   2.211       .  S
Mn545       N654   2.210       .  S
Mn545      Cl781   2.552       .  S
Mn546       N645   2.208       .  S
Mn546       N660   2.211       .  S
Mn546      Cl547   2.551       .  S
Cl547      Mn779   2.550   1_545  S
C548        C572   1.477       .  S
C548        N772   1.354   1_545  A
C549        C569   1.477       .  S
C549        N776   1.354   1_545  A
C550        C551   1.340       .  D
C550        H552   1.088       .  S
C551        H553   1.087   1_655  S
C554        C555   1.341       .  D
C554        H556   1.087   1_655  S
C555        H557   1.087       .  S
C558        C559   1.340       .  D
C558        H560   1.087       .  S
C559        H561   1.087   1_655  S
C562        C563   1.341       .  D
C562        H564   1.087       .  S
C563        H565   1.087   1_655  S
C566        C567   1.207       .  T
C568        C569   1.343   1_565  D
C568        H804   1.087       .  S
C569        H571   1.087       .  S
H570        C802   1.087       .  S
C572        C573   1.343   1_545  D
C572        H574   1.087       .  S
C573        H809   1.087       .  S
H575        C807   1.087       .  S
C576        C577   1.341   1_545  D
C576        H578   1.087       .  S
C577        H813   1.088       .  S
H579        C811   1.087       .  S
C580        C581   1.342   1_565  D
C580        H816   1.087       .  S
C581        H583   1.087       .  S
H582        C814   1.087       .  S
C584        C585   1.211       .  T
C586        C587   1.404       .  A
C586        C591   1.404       .  A
C586        C702   1.444       .  S
C587        C822   1.403       .  A
C587        H592   1.084       .  S
C588        C821   1.406       .  A
C588        C589   1.406       .  A
C588        C694   1.483       .  S
C589        C590   1.408       .  A
C589        H593   1.084       .  S
C590        C825   1.403       .  A
C590        C697   1.481       .  S
C591        C824   1.403       .  A
C591        H594   1.084       .  S
C595        C596   1.402       .  A
C595        C600   1.402       .  A
C595        C701   1.444       .  S
C596        C831   1.404       .  A
C596        H601   1.085       .  S
C597        C830   1.405       .  A
C597        C598   1.406   1_565  A
C597        C690   1.481   1_565  S
C598        C599   1.407   1_545  A
C598        H602   1.084       .  S
C599        C834   1.403       .  A
C599        C685   1.480       .  S
C600        C833   1.402       .  A
C600        H603   1.085       .  S
C604        C605   1.404       .  A
C604        C609   1.403       .  A
C604        C683   1.443       .  S
C605        C606   1.404       .  A
C605        H610   1.084       .  S
C606        C607   1.404       .  A
C606        C676   1.480       .  S
C607        C608   1.403       .  A
C607        H611   1.084       .  S
C608        C609   1.402       .  A
C608        C679   1.477       .  S
C609        H612   1.084       .  S
C613        C614   1.403       .  A
C613        C618   1.403       .  A
C613        C684   1.443       .  S
C614        C615   1.403       .  A
C614        H619   1.084       .  S
C615        C616   1.404       .  A
C615        C672   1.478       .  S
C616        C617   1.404       .  A
C616        H620   1.084       .  S
C617        C618   1.402       .  A
C617        C668   1.477       .  S
C618        H621   1.084       .  S
N622        N623   1.319       .  A
N622        N862   1.316   1_545  A
N623        C630   1.349       .  A
N624        N860   1.315       .  A
N624        N625   1.316       .  A
N624       Mn640   2.184       .  S
N625        C865   1.346       .  A
N626        N858   1.316   1_545  A
N626        N627   1.324       .  A
N626       Mn651   2.222       .  S
N627        C631   1.355       .  A
N628        N856   1.316       .  A
N628        N629   1.324       .  A
N629        C864   1.356       .  A
C630        C698   1.473       .  S
C630        N863   1.355   1_545  A
C631        C693   1.479       .  S
C631        N859   1.352   1_545  A
N632        N638   1.317       .  A
N632        N633   1.319       .  A
N632       Mn662   2.200   1_556  S
N633        C641   1.350       .  A
N634        N635   1.320   1_655  A
N634        N636   1.317       .  A
N635        C642   1.351   1_455  A
N636        N637   1.322       .  A
N637        C642   1.354       .  A
N638        N639   1.322       .  A
N639        C641   1.354       .  A
C641        C667   1.470       .  S
C642        C671   1.472       .  S
N643        N644   1.323       .  A
N643        N649   1.317       .  A
N644        C652   1.355       .  A
N645        N647   1.316       .  A
N645        N646   1.323       .  A
N646        C653   1.355       .  A
N647        N648   1.319   1_655  A
N648        C653   1.349   1_455  A
N649        N650   1.319       .  A
N649       Mn663   2.203   1_556  S
N650        C652   1.349       .  A
C652        C675   1.471       .  S
C653        C680   1.469       .  S
N654        N655   1.322       .  A
N654        N894   1.316       .  A
N655        C899   1.354       .  A
N656        N657   1.320       .  A
N656        N892   1.316       .  A
N656       Mn663   2.202   1_556  S
N657        C666   1.350       .  A
N658        N890   1.316       .  A
N658        N659   1.322       .  A
N658       Mn662   2.203   1_556  S
N659        C900   1.354       .  A
N660        N888   1.316       .  A
N660        N661   1.323       .  A
N661        C665   1.354       .  A
Mn662      Cl898   2.555   1_554  S
Mn663      Cl664   2.538   1_554  S
Cl664      Mn896   2.560   1_546  S
C665        C689   1.476       .  S
C665        N889   1.353   1_545  A
C666        C686   1.474       .  S
C666        N893   1.354   1_545  A
C667        C668   1.341       .  D
C667        H669   1.087       .  S
C668        H670   1.087   1_655  S
C671        C672   1.342       .  D
C671        H673   1.087   1_655  S
C672        H674   1.087       .  S
C675        C676   1.342       .  D
C675        H677   1.087       .  S
C676        H678   1.087   1_655  S
C679        C680   1.341       .  D
C679        H681   1.087       .  S
C680        H682   1.087   1_655  S
C683        C684   1.208       .  T
C685        C686   1.341   1_565  D
C685        H921   1.087       .  S
C686        H688   1.087       .  S
H687        C919   1.087       .  S
C689        C690   1.344       .  D
C689        H691   1.087       .  S
C690        H926   1.087   1_545  S
H692        C924   1.087       .  S
C693        C694   1.345   1_545  D
C693        H695   1.087       .  S
C694        H930   1.087       .  S
H696        C928   1.087       .  S
C697        C698   1.340   1_565  D
C697        H933   1.087       .  S
C698        H700   1.087       .  S
H699        C931   1.087       .  S
C701        C702   1.209       .  T
C703        C704   1.402       .  A
C703        C708   1.404       .  A
C703        C819   1.446       .  S
C704        H709   1.085       .  S
C705        C706   1.406       .  A
C705        C811   1.483       .  S
C706        C707   1.405       .  A
C706        H710   1.084       .  S
C707        C814   1.482       .  S
C708        H711   1.084       .  S
C712        C713   1.402       .  A
C712        C717   1.403       .  A
C712        C818   1.446       .  S
C713        H718   1.085       .  S
C714        C715   1.407       .  A
C714        C807   1.484       .  S
C715        C716   1.407       .  A
C715        H719   1.084       .  S
C716        C802   1.482       .  S
C717        H720   1.084       .  S
C721        C722   1.402       .  A
C721        C726   1.403       .  A
C721        C800   1.440       .  S
C722        C723   1.402       .  A
C722        H727   1.084       .  S
C723        C724   1.403       .  A
C723        C793   1.476       .  S
C724        C725   1.403       .  A
C724        H728   1.084       .  S
C725        C726   1.402       .  A
C725        C796   1.477       .  S
C726        H729   1.084       .  S
C730        C731   1.402       .  A
C730        C735   1.403       .  A
C730        C801   1.440       .  S
C731        C732   1.401       .  A
C731        H736   1.084       .  S
C732        C733   1.404       .  A
C732        C789   1.477       .  S
C733        C734   1.404       .  A
C733        H737   1.084       .  S
C734        C735   1.402       .  A
C734        C785   1.478       .  S
C735        H738   1.084       .  S
N739        N740   1.321       .  A
N739       Mn885   2.210   1_554  S
N740        C747   1.352       .  A
N741        N742   1.321       .  A
N741       Mn757   2.205       .  S
N743        N744   1.321       .  A
N743       Mn768   2.209       .  S
N744        C748   1.352       .  A
N745        N746   1.323       .  A
N745       Mn874   2.212   1_554  S
C747        C815   1.476       .  S
C748        C810   1.476       .  S
N749        N755   1.317       .  A
N749        N750   1.318       .  A
N749       Mn779   2.195       .  S
N750        C758   1.349       .  A
N751        N752   1.318   1_655  A
N751        N753   1.316       .  A
N752        C759   1.348   1_455  A
N753        N754   1.324       .  A
N753       Mn896   2.218       .  S
N754        C759   1.356       .  A
N755        N756   1.323       .  A
N756        C758   1.355       .  A
Mn757       N862   2.215       .  S
C758        C784   1.470       .  S
C759        C788   1.469       .  S
N760        N761   1.322       .  A
N760        N766   1.315       .  A
N761        C769   1.354       .  A
N762        N764   1.316       .  A
N762        N763   1.323       .  A
N762       Mn897   2.209       .  S
N763        C770   1.355       .  A
N764        N765   1.318   1_655  A
N765        C770   1.349   1_455  A
N766        N767   1.319       .  A
N766       Mn780   2.195       .  S
N767        C769   1.350       .  A
Mn768       N856   2.195       .  S
C769        C792   1.468       .  S
C770        C797   1.468       .  S
N771        N772   1.322   1_545  A
N771       Mn896   2.204   1_545  S
N773        N774   1.321       .  A
N773       Mn780   2.206       .  S
N774        C783   1.352       .  A
N775        N776   1.323   1_545  A
N775       Mn779   2.209   1_545  S
N777        N778   1.323       .  A
N777       Mn897   2.218       .  S
N778        C782   1.354       .  A
Mn779       N870   2.212       .  S
Mn779       N888   2.204   1_565  S
Mn780       N879   2.203       .  S
Mn780       N894   2.204       .  S
Mn780      Cl781   2.546       .  S
C782        C806   1.478       .  S
C783        C803   1.477       .  S
C784        C785   1.341       .  D
C784        H786   1.087       .  S
C785        H787   1.087   1_655  S
C788        C789   1.340       .  D
C788        H790   1.088   1_655  S
C789        H791   1.087       .  S
C792        C793   1.341       .  D
C792        H794   1.087       .  S
C793        H795   1.087   1_655  S
C796        C797   1.340       .  D
C796        H798   1.087       .  S
C797        H799   1.087   1_655  S
C800        C801   1.206       .  T
C802        C803   1.343       .  D
C803        H805   1.087       .  S
C806        C807   1.345       .  D
C806        H808   1.087       .  S
C810        C811   1.343       .  D
C810        H812   1.087       .  S
C814        C815   1.343       .  D
C815        H817   1.087       .  S
C818        C819   1.210       .  T
C820        C821   1.404       .  A
C820        C825   1.402       .  A
C820        C936   1.446       .  S
C821        H826   1.084       .  S
C822        C823   1.406       .  A
C822        C928   1.484       .  S
C823        C824   1.405       .  A
C823        H827   1.084       .  S
C824        C931   1.482       .  S
C825        H828   1.085       .  S
C829        C830   1.403       .  A
C829        C834   1.401       .  A
C829        C935   1.446       .  S
C830        H835   1.084       .  S
C831        C832   1.406       .  A
C831        C924   1.480       .  S
C832        C833   1.405       .  A
C832        H836   1.084       .  S
C833        C919   1.477       .  S
C834        H837   1.085       .  S
C838        C839   1.403       .  A
C838        C843   1.402       .  A
C838        C917   1.441       .  S
C839        C840   1.402       .  A
C839        H844   1.084       .  S
C840        C841   1.402       .  A
C840        C910   1.475       .  S
C841        C842   1.403       .  A
C841        H845   1.084       .  S
C842        C843   1.402       .  A
C842        C913   1.477       .  S
C843        H846   1.084       .  S
C847        C848   1.404       .  A
C847        C852   1.403       .  A
C847        C918   1.442       .  S
C848        C849   1.403       .  A
C848        H853   1.084       .  S
C849        C850   1.402       .  A
C849        C906   1.478       .  S
C850        C851   1.402       .  A
C850        H854   1.084       .  S
C851        C852   1.401       .  A
C851        C902   1.477       .  S
C852        H855   1.084       .  S
N856        N857   1.318       .  A
N857        C864   1.349       .  A
N858        N859   1.321       .  A
N858       Mn874   2.201       .  S
N860        N861   1.326       .  A
N860       Mn885   2.223       .  S
N861        C865   1.358       .  A
N862        N863   1.323       .  A
C864        C932   1.472       .  S
C865        C927   1.470       .  S
N866        N872   1.316       .  A
N866        N867   1.318       .  A
N866       Mn896   2.196   1_556  S
N867        C875   1.349       .  A
N868        N869   1.318   1_655  A
N868        N870   1.317       .  A
N869        C876   1.349   1_455  A
N870        N871   1.323       .  A
N871        C876   1.354       .  A
N872        N873   1.322       .  A
N873        C875   1.354       .  A
C875        C901   1.466       .  S
C876        C905   1.466       .  S
N877        N878   1.321       .  A
N877        N883   1.316       .  A
N878        C886   1.353       .  A
N879        N881   1.315       .  A
N879        N880   1.322       .  A
N880        C887   1.353       .  A
N881        N882   1.319   1_655  A
N882        C887   1.350   1_455  A
N883        N884   1.319       .  A
N883       Mn897   2.201   1_556  S
N884        C886   1.350       .  A
C886        C909   1.469       .  S
C887        C914   1.468       .  S
N888        N889   1.320   1_545  A
N890        N891   1.321       .  A
N890       Mn897   2.206   1_556  S
N891        C900   1.351       .  A
N892        N893   1.322   1_545  A
N892       Mn896   2.208   1_546  S
N894        N895   1.321       .  A
N895        C899   1.351       .  A
Mn897      Cl898   2.546   1_554  S
C899        C923   1.473       .  S
C900        C920   1.473       .  S
C901        C902   1.341       .  D
C901        H903   1.087       .  S
C902        H904   1.087       .  S
C905        C906   1.342       .  D
C905        H907   1.087       .  S
C906        H908   1.087       .  S
C909        C910   1.341       .  D
C909        H911   1.087       .  S
C910        H912   1.087   1_655  S
C913        C914   1.341       .  D
C913        H915   1.087       .  S
C914        H916   1.087   1_655  S
C917        C918   1.207       .  T
C919        C920   1.341       .  D
C920        H922   1.087       .  S
C923        C924   1.342       .  D
C923        H925   1.087       .  S
C927        C928   1.341       .  D
C927        H929   1.087       .  S
C931        C932   1.342       .  D
C932        H934   1.087       .  S
C935        C936   1.210       .  T
