geometry optimzed in LAMMPS
_audit_creation_date              2020-11-30 
_audit_creation_method            'lammps2cif' 
_symmetry_space_group_name_H-M    'P1' 
_symmetry_Int_Tables_number       1 
_symmetry_cell_setting            triclinic 
loop_ 
_symmetry_equiv_pos_as_xyz 
  x,y,z 
_cell_length_a                    28.10752931 
_cell_length_b                    28.07624372726376 
_cell_length_c                    27.905964315691968 
_cell_angle_alpha                 90.58339295675498 
_cell_angle_beta                  89.6672928203307 
_cell_angle_gamma                 89.97035824079443 
loop_ 
_atom_site_label 
_atom_site_type_symbol 
_atom_site_fract_x 
_atom_site_fract_y 
_atom_site_fract_z 
_atom_site_charge 
C1          C  0.84019993  0.83526910  0.82521725     0.86900
C2          C  0.87098568  0.80533344  0.85799196    -0.53300
C3          C  0.89740997  0.83146242  0.88898879     0.09800
C4          C  0.89306382  0.88574542  0.88350766     0.20800
C5          C  0.81266913  0.86883769  0.85909561    -0.54100
C6          C  0.83990066  0.89641470  0.88894568     0.09900
C7          C  0.87768762  0.86689859  0.80029061    -0.53600
C8          C  0.90384257  0.89444057  0.83086657     0.10500
H9          H  0.87211519  0.76663779  0.85685377     0.15000
H10         H  0.91665227  0.90688375  0.90665965     0.00700
H11         H  0.77407650  0.86915261  0.85999390     0.15300
H12         H  0.88697084  0.86637770  0.76285049     0.15100
C13         C  0.97486082  0.97162451  0.48602486     0.42900
N14         N  0.94975019  0.92014910  0.43173027     0.01800
C15         C  0.74155265  0.93246267  0.28906480    -0.06100
H16         H  0.71602534  0.89190660  0.47095686     0.07200
C17         C  0.79458933  0.73543791  0.44584869    -0.06500
Co18       Co  0.86065792  0.95311934  0.37885090     0.74200
N19         N  0.77648587  0.91070352  0.42757875    -0.25700
Co20       Co  0.77545211  0.86317503  0.37076390     0.74100
C21         C  0.74845057  0.74892247  0.46791900     0.43000
N22         N  0.91305630  0.77770920  0.41954869     0.01400
N23         N  0.77310589  0.80398338  0.41830700     0.01500
N24         N  0.79468949  0.99202896  0.29559201    -0.46500
H25         H  0.90968990  0.01970037  0.47212116     0.07200
N26         N  0.80812084  0.94539343  0.43029626     0.01800
N27         N  0.78076758  0.81658300  0.31363950     0.01500
C28         C  0.76675962  0.77988226  0.24786276     0.43100
N29         N  0.94515675  0.81186239  0.42424534    -0.25100
C30         C  0.92327171  0.98724969  0.29498684    -0.06000
N31         N  0.98509546  0.93007781  0.46235305    -0.46200
N32         N  0.75198262  0.81562020  0.27666474    -0.46400
C33         C  0.97045325  0.97481256  0.27635604     0.42900
N34         N  0.80547821  0.95640969  0.32541613     0.01700
N35         N  0.95480225  0.81405830  0.32033465    -0.25100
N36         N  0.91615269  0.95317886  0.43231421    -0.25600
N37         N  0.92172527  0.78095073  0.31496207     0.01400
H38         H  0.02536035  0.82126670  0.28970698     0.07300
H39         H  0.82884603  0.72731801  0.26063267     0.07300
N40         N  0.77413148  0.92148330  0.32280377    -0.25700
N41         N  0.80674098  0.77123362  0.41573381    -0.25300
N42         N  0.94892216  0.92272145  0.32760337     0.01800
C43         C  0.76200186  0.95710874  0.49006189     0.43200
C44         C  0.97253910  0.80209822  0.46161615    -0.06500
N45         N  0.81401774  0.78350134  0.31124680    -0.25300
H46         H  0.81439278  0.70273955  0.45015812     0.07300
N47         N  0.80032620  0.97437561  0.46689932    -0.46500
H48         H  0.00337474  0.82221396  0.47293349     0.07300
C49         C  0.97809073  0.75878799  0.26473395     0.43000
C50         C  0.92864951  0.98672434  0.46552972    -0.06000
Co51       Co  0.95030472  0.86710432  0.37602320     0.73800
N52         N  0.91770465  0.74382473  0.45146825    -0.46200
C53         C  0.75476879  0.97949920  0.27055885     0.43300
N54         N  0.98360848  0.93420696  0.29804821    -0.46200
Co55       Co  0.86396181  0.77751797  0.36512258     0.73900
C56         C  0.80789054  0.75802832  0.27110149    -0.06500
C57         C  0.74666064  0.91433947  0.46466502    -0.06100
N58         N  0.91399428  0.95422807  0.32766134    -0.25600
N59         N  0.73786510  0.79195036  0.44836614    -0.46400
H60         H  0.71056856  0.91133382  0.28038971     0.07300
C61         C  0.99167291  0.80274509  0.29076303    -0.06500
Cl62       Cl  0.86271017  0.86530735  0.37266540    -0.49500
C63         C  0.95382394  0.75745291  0.47964677     0.43000
H64         H  0.90073888  0.01749578  0.28797994     0.07200
N65         N  0.93439869  0.74748378  0.28276438    -0.46200
C66         C  0.77823386  0.48629181  0.96114714     0.42900
N67         N  0.79099711  0.42524385  0.91714426     0.01800
C68         C  0.99386711  0.28802430  0.91902175    -0.06100
H69         H  0.03219859  0.46532199  0.90905008     0.07200
C70         C  0.92901784  0.46649639  0.74795077    -0.06500
Co71       Co  0.87754721  0.37391045  0.95000864     0.74200
N72         N  0.96587771  0.42682045  0.91676221    -0.25700
Co73       Co  0.96383921  0.37587457  0.85917393     0.74100
C74         C  0.97004910  0.49257744  0.76736717     0.43000
N75         N  0.81579783  0.42489032  0.77456428     0.01400
N76         N  0.95778692  0.42952197  0.80870848     0.01500
N77         N  0.93517622  0.28716815  0.97492507    -0.46500
H78         H  0.84538248  0.47350974  0.00572076     0.07200
N79         N  0.93350813  0.42643633  0.95126630     0.01800
N80         N  0.96537558  0.32457505  0.80104431     0.01500
C81         C  0.98798705  0.27222586  0.74620253     0.43100
N82         N  0.78291767  0.42266016  0.80853344    -0.25100
C83         C  0.80847683  0.29129336  0.98976700    -0.06000
N84         N  0.76055075  0.46044815  0.92434655    -0.46200
N85         N  0.00053463  0.29458356  0.78808341    -0.46400
C86         C  0.76273969  0.26858694  0.97584125     0.42900
N87         N  0.92900885  0.32161226  0.94400335     0.01700
N88         N  0.79195746  0.31927489  0.81347458    -0.25100
N89         N  0.82647416  0.42615220  0.94804429    -0.25600
N90         N  0.82450876  0.31987143  0.77921146     0.01400
H91         H  0.73683074  0.27099429  0.83235161     0.07300
H92         H  0.92037130  0.28642677  0.70252943     0.07300
N93         N  0.96271648  0.32287678  0.91069975    -0.25700
N94         N  0.92388990  0.42874425  0.77615399    -0.25300
N95         N  0.78718760  0.32013627  0.92153141     0.01800
C96         C  0.98562100  0.47988875  0.97585398     0.43200
C97         C  0.74651954  0.45181809  0.79614252    -0.06500
N98         N  0.93046381  0.32449005  0.76956840    -0.25300
H99         H  0.90700224  0.47320437  0.71723924     0.07300
N100        N  0.94412358  0.45701459  0.98693815    -0.46500
H101        H  0.71328537  0.45532391  0.81558753     0.07300
C102        C  0.78744408  0.25405839  0.76845503     0.43000
C103        C  0.82222996  0.46425646  0.97623575    -0.06000
Co104      Co  0.78732515  0.37189095  0.86513498     0.73800
N105        N  0.80345355  0.45461826  0.73940243    -0.46200
C106        C  0.97531778  0.26450190  0.96165837     0.43300
N107        N  0.75216725  0.28968900  0.93321953    -0.46200
Co108      Co  0.87355563  0.37465214  0.77397704     0.73900
C109        C  0.94121691  0.29250405  0.73440050    -0.06500
C110        C  0.99979250  0.45915926  0.92897463    -0.06100
N111        N  0.82099623  0.32181298  0.95416414    -0.25600
N112        N  0.98606563  0.46670537  0.80446918    -0.46400
H113        H  0.02652726  0.28183857  0.89924633     0.07300
C114        C  0.76651090  0.27965455  0.80936831    -0.06500
Cl115      Cl  0.87561207  0.37411935  0.86209119    -0.49500
C116        C  0.76007030  0.47397194  0.75023167     0.43000
H117        H  0.82774284  0.28702578  0.02288460     0.07200
N118        N  0.82278023  0.28171230  0.75141927    -0.46200
C119        C  0.48475248  0.97831783  0.97830351     0.42900
N120        N  0.43009630  0.95818401  0.92544999     0.01800
C121        C  0.28310016  0.75144011  0.92497546    -0.06100
H122        H  0.46298357  0.72572131  0.88567565     0.07200
C123        C  0.45543570  0.80783581  0.73834685    -0.06500
Co124      Co  0.37300284  0.86942028  0.95303159     0.74200
N125        N  0.41979628  0.78441141  0.90939965    -0.25700
Co126      Co  0.36701994  0.78718409  0.85852812     0.74100
C127        C  0.47078411  0.75907722  0.74955135     0.43000
N128        N  0.43054382  0.92610255  0.78239622     0.01400
N129        N  0.41881358  0.78432008  0.80244238     0.01500
N130        N  0.28966651  0.80133229  0.98811762    -0.46500
H131        H  0.46625480  0.91213705  0.02343165     0.07200
N132        N  0.42243483  0.81464508  0.94594054     0.01800
N133        N  0.31524344  0.79674371  0.80698888     0.01500
C134        C  0.26293971  0.78180032  0.75352838     0.43100
N135        N  0.43167777  0.95877393  0.81675807    -0.25100
C136        C  0.28517813  0.93148832  0.98032037    -0.06000
N137        N  0.46280879  0.99111010  0.93685434    -0.46200
N138        N  0.28110362  0.76665116  0.79544653    -0.46400
C139        C  0.26391408  0.97488836  0.96214719     0.42900
N140        N  0.31835017  0.81502969  0.95211739     0.01700
N141        N  0.32809242  0.96854799  0.81145904    -0.25100
N142        N  0.42791086  0.92347689  0.95716163    -0.25600
N143        N  0.32649595  0.93593955  0.77706195     0.01400
H144        H  0.29292424  0.03711130  0.81899413     0.07300
H145        H  0.28862731  0.84456821  0.70749729     0.07300
N146        N  0.31585287  0.78546146  0.91504942    -0.25700
N147        N  0.42311961  0.82009084  0.77247795    -0.25300
N148        N  0.32530773  0.95877177  0.92017073     0.01800
C149        C  0.48058159  0.76689048  0.95502987     0.43200
C150        C  0.46836969  0.98782392  0.80864862    -0.06500
N151        N  0.32047881  0.83054911  0.77497663    -0.25300
H152        H  0.46388738  0.82865897  0.70703856     0.07300
N153        N  0.45816372  0.80492252  0.97478942    -0.46500
H154        H  0.47687247  0.01951710  0.82922313     0.07300
C155        C  0.27574390  0.98972220  0.75301132     0.43000
C156        C  0.46099418  0.93298133  0.99151632    -0.06000
Co157      Co  0.37881674  0.96196408  0.86876261     0.73800
N158        N  0.46466428  0.93125691  0.75037233    -0.46200
C159        C  0.26519948  0.76153374  0.97375844     0.43300
N160        N  0.29086781  0.99029821  0.92551180    -0.46200
Co161      Co  0.37537600  0.87832595  0.77646676     0.73900
C162        C  0.28897939  0.82446067  0.74030778    -0.06500
C163        C  0.45582085  0.75391716  0.91137453    -0.11700
N164        N  0.32304858  0.92413346  0.95204397    -0.25600
N165        N  0.44565509  0.74700625  0.78943530    -0.46400
H166        H  0.27613042  0.72045497  0.90276609     0.07300
C167        C  0.29780604  0.00417421  0.79913832    -0.06500
Cl168      Cl  0.37352394  0.87424668  0.86435671    -0.49500
C169        C  0.49002942  0.96927908  0.76465381     0.43000
H170        H  0.27447527  0.90968897  0.01023940     0.07200
N171        N  0.29627678  0.94712011  0.74206601    -0.46200
C172        C  0.39319332  0.32852632  0.90882118     0.86900
C173        C  0.42498337  0.36400727  0.88285561    -0.53300
C174        C  0.40099592  0.39306910  0.85298236     0.09800
C175        C  0.34635673  0.38606910  0.85355886     0.20800
C176        C  0.35814333  0.36124505  0.93565029    -0.54100
C177        C  0.33301556  0.39031296  0.90641588     0.09900
C178        C  0.36499412  0.30380030  0.86962920    -0.53600
C179        C  0.33809451  0.33292636  0.84214895     0.10500
H180        H  0.46338864  0.36565449  0.88686181     0.15000
H181        H  0.32628946  0.41151513  0.83164911     0.00700
H182        H  0.35515170  0.36450901  0.97424771     0.15300
H183        H  0.36642873  0.26543760  0.86445877     0.15100
C184        C  0.40513545  0.81866392  0.37490258     0.86900
C185        C  0.37943516  0.84739939  0.41490822    -0.53300
C186        C  0.35137186  0.88365958  0.39897630     0.09800
C187        C  0.35281545  0.88892245  0.34434148     0.20800
C188        C  0.36688825  0.80382163  0.33922805    -0.54100
C189        C  0.33945304  0.84025469  0.32417729     0.09900
C190        C  0.43330301  0.85749026  0.34861861    -0.53600
C191        C  0.40580092  0.89416816  0.33230667     0.10500
H192        H  0.38446531  0.84005182  0.45262452     0.15000
H193        H  0.32950055  0.91761258  0.33103597     0.00700
H194        H  0.36206467  0.76744577  0.32646552     0.15300
H195        H  0.47143571  0.85848020  0.34460313     0.15100
C196        C  0.91424447  0.39642835  0.34457102     0.86900
C197        C  0.87891457  0.42221917  0.37727810    -0.53300
C198        C  0.84745232  0.39351835  0.40055612     0.09800
C199        C  0.85286525  0.34064250  0.38658904     0.20800
C200        C  0.93681281  0.35752543  0.37577539    -0.54100
C201        C  0.90431059  0.32941494  0.39835511     0.09900
C202        C  0.88408209  0.36770279  0.30982513    -0.53600
C203        C  0.85187719  0.33947333  0.33147409     0.10500
H204        H  0.87846540  0.46075733  0.38052756     0.15000
H205        H  0.82803675  0.31578518  0.40429990     0.00700
H206        H  0.97427924  0.34981694  0.37886075     0.15300
H207        H  0.88794702  0.36914883  0.27105977     0.15100
C208        C  0.01733535  0.23594107  0.71687846     0.42900
N209        N  0.06674186  0.20772592  0.66200316     0.01800
C210        C  0.05521867  0.98513281  0.54039077    -0.06100
H211        H  0.09315719  0.97267010  0.72192433     0.07200
C212        C  0.25357747  0.06306840  0.69491201    -0.06500
Co213      Co  0.03654617  0.11182111  0.62139057     0.74200
N214        N  0.07975450  0.03283575  0.67661270    -0.25700
Co215      Co  0.12797350  0.02782150  0.61969100     0.74100
C216        C  0.24339560  0.01790264  0.71963928     0.43000
N217        N  0.20848325  0.17793466  0.65425864     0.01400
N218        N  0.18749004  0.03389109  0.66751319     0.01500
N219        N  0.99722900  0.04014067  0.54443337    -0.46500
H220        H  0.97136453  0.16808393  0.71068705     0.07200
N221        N  0.04705589  0.06661191  0.67798683     0.01800
N222        N  0.17643588  0.02855246  0.56307421     0.01500
C223        C  0.22259500  0.00633476  0.50592480     0.43100
N224        N  0.17338186  0.20930110  0.65250870    -0.25100
C225        C  0.99821980  0.15908679  0.53197356    -0.06000
N226        N  0.05680799  0.24568664  0.68991796    -0.46200
N227        N  0.18431578  0.99343023  0.53214978    -0.46400
C228        C  0.01202913  0.19901578  0.50265702     0.42900
N229        N  0.03333587  0.05176272  0.57346233     0.01700
N230        N  0.17084627  0.20205209  0.54963629    -0.25100
N231        N  0.03563674  0.17300530  0.66774728    -0.25600
N232        N  0.20641049  0.17122208  0.54997169     0.01400
H233        H  0.15936569  0.26692930  0.50998095     0.07300
H234        H  0.26966948  0.07292863  0.51473728     0.07300
N235        N  0.06812932  0.02009602  0.57200342    -0.25700
N236        N  0.21767679  0.06981883  0.66333130    -0.25300
N237        N  0.06401920  0.19013430  0.55703869     0.01800
C238        C  0.03224233  0.02511666  0.74005047     0.43200
C239        C  0.18189834  0.24503573  0.68280998    -0.06500
N240        N  0.20798507  0.06328969  0.55921634    -0.25300
H241        H  0.28504295  0.08505707  0.69765829     0.07300
N242        N  0.01854272  0.06353582  0.71533530    -0.46500
H243        H  0.16012085  0.27643784  0.68812154     0.07300
C244        C  0.22664295  0.22231754  0.49447466     0.43000
C245        C  0.00300364  0.18766999  0.70082233    -0.06000
Co246      Co  0.11845725  0.20280557  0.60508210     0.73800
N247        N  0.24185180  0.19053744  0.68494201    -0.46200
C248        C  0.00760007  0.99825365  0.52156392     0.43300
N249        N  0.05337321  0.21637629  0.51984544    -0.46200
Co250      Co  0.21079908  0.12046143  0.60680084     0.73900
C251        C  0.23835210  0.05252800  0.52394300    -0.06500
C252        C  0.07336686  0.00481884  0.71464679    -0.06100
N253        N  0.03215009  0.15661907  0.56475482    -0.25600
N254        N  0.20210285  0.00195395  0.69961401    -0.46400
H255        H  0.07574569  0.95337090  0.53258130     0.07300
C256        C  0.18022864  0.23515769  0.51582934    -0.06500
Cl257      Cl  0.12361303  0.11572305  0.61331952    -0.49500
C258        C  0.22691406  0.23238082  0.70357887     0.43000
H259        H  0.96623376  0.13770533  0.53111833     0.07200
N260        N  0.24041092  0.18235908  0.51817114    -0.46200
C261        C  0.01830615  0.73196081  0.01914173     0.42900
N262        N  0.06683178  0.67612302  0.03681582     0.01800
C263        C  0.07218809  0.53955225  0.23834839    -0.06100
H264        H  0.07882969  0.71604590  0.27647834     0.07200
C265        C  0.23442503  0.71955305  0.16535647    -0.06500
Co266      Co  0.03495249  0.62205525  0.12255491     0.74200
N267        N  0.06956470  0.67728177  0.20977626    -0.25700
Co268      Co  0.12674614  0.62767914  0.20630479     0.74100
C269        C  0.21411008  0.74838103  0.20421767     0.43000
N270        N  0.20952183  0.67767698  0.05778014     0.01400
N271        N  0.17665027  0.68188199  0.19922958     0.01500
N272        N  0.01552897  0.53360175  0.18148002    -0.46500
H273        H  0.96860415  0.71136755  0.08244719     0.07200
N274        N  0.03371008  0.67453656  0.17941091     0.01800
N275        N  0.18258005  0.57578978  0.20573829     0.01500
C276        C  0.23175952  0.51892963  0.22668434     0.43100
N277        N  0.17488068  0.67664476  0.02596740    -0.25100
C278        C  0.99890194  0.53683424  0.05476187    -0.06000
N279        N  0.05898066  0.71010720  0.00580129    -0.46200
N280        N  0.19167544  0.54338927  0.23942270    -0.46400
C281        C  0.01232560  0.51636611  0.00744557     0.42900
N282        N  0.04365549  0.57026929  0.17399687     0.01700
N283        N  0.17034756  0.57302711  0.03109363    -0.25100
N284        N  0.03365580  0.67399594  0.07039920    -0.25600
N285        N  0.20554157  0.57311018  0.06234030     0.01400
H286        H  0.15219815  0.52741255  0.97162691     0.07300
H287        H  0.27858211  0.53322375  0.15996698     0.07300
N288        N  0.07714315  0.57419723  0.20673814    -0.25700
N289        N  0.20869027  0.67994392  0.16459640    -0.25300
N290        N  0.06375810  0.57111859  0.03051650     0.01800
C291        C  0.00973613  0.72626499  0.23391577     0.43200
C292        C  0.18634397  0.70787603  0.99080567    -0.06500
N293        N  0.21442327  0.57513601  0.17076149    -0.25300
H294        H  0.26285760  0.72665393  0.14042603     0.07300
N295        N  0.99717076  0.70236123  0.19305124    -0.46500
H296        H  0.16631939  0.71280544  0.95826222     0.07300
C297        C  0.21742004  0.51267952  0.01806550     0.43000
C298        C  0.00118068  0.70747127  0.06214299    -0.06000
Co299      Co  0.11890775  0.62448920  0.03037739     0.73800
N300        N  0.24405608  0.70847453  0.04606916    -0.46200
C301        C  0.03138895  0.51243227  0.22150921     0.43300
N302        N  0.05297868  0.54015545  0.99528095    -0.46200
Co303      Co  0.21064723  0.62620954  0.11402204     0.73900
C304        C  0.24714115  0.54108682  0.18113545    -0.06500
C305        C  0.05802207  0.70918343  0.24471053    -0.06100
N306        N  0.03238160  0.57008500  0.06590222    -0.25600
N307        N  0.17904136  0.72204599  0.22422916    -0.46400
H308        H  0.09334356  0.53587137  0.27030364     0.07300
C309        C  0.17488393  0.53590194  0.00169516    -0.06500
Cl310      Cl  0.12275799  0.62521567  0.11824044    -0.49500
C311        C  0.23218735  0.73025137  0.00433601     0.43000
H312        H  0.96726658  0.52976182  0.07575626     0.07200
N313        N  0.23570628  0.53780458  0.05490023    -0.46200
C314        C  0.72750825  0.00949269  0.23421959     0.42900
N315        N  0.67723788  0.06265157  0.20718558     0.01800
C316        C  0.54513240  0.05358800  0.99166325    -0.06100
H317        H  0.72823381  0.09116001  0.97547592     0.07200
C318        C  0.70795099  0.24849341  0.05407280    -0.06500
Co319      Co  0.62704251  0.03127494  0.11564202     0.74200
N320        N  0.68199662  0.07250214  0.03373648    -0.25700
Co321      Co  0.62858732  0.12209906  0.03022305     0.74100
C322        C  0.72883011  0.23738853  0.00647960     0.43000
N323        N  0.67658688  0.20412611  0.17228979     0.01400
N324        N  0.67875833  0.18098454  0.02939617     0.01500
N325        N  0.54461432  0.99632447  0.04728049    -0.46500
H326        H  0.71201492  0.96034366  0.16928486     0.07200
N327        N  0.68111686  0.03674205  0.06426457     0.01800
N328        N  0.57484804  0.17062779  0.03492271     0.01500
C329        C  0.51165440  0.20842822  0.02120546     0.43100
N330        N  0.67654738  0.17014655  0.20479470    -0.25100
C331        C  0.53720345  0.00303525  0.17502628    -0.06000
N332        N  0.70598673  0.05207640  0.24371292    -0.46200
N333        N  0.53854081  0.17204299  0.00568891    -0.46400
C334        C  0.51402576  0.02192265  0.21805740     0.42900
N335        N  0.57629661  0.03047088  0.05833817     0.01700
N336        N  0.57292064  0.17288641  0.20837052    -0.25100
N337        N  0.67710468  0.02912237  0.17358672    -0.25600
N338        N  0.57328159  0.20765428  0.17685392     0.01400
H339        H  0.53479169  0.16368925  0.27530800     0.07300
H340        H  0.52338510  0.26029283  0.08452239     0.07300
N341        N  0.57760284  0.06458172  0.02605829    -0.25700
N342        N  0.67736306  0.21255400  0.06477075    -0.25300
N343        N  0.57297329  0.06615516  0.20121728     0.01800
C344        C  0.74147745  0.02378614  0.01938756     0.43200
C345        C  0.71223031  0.17773659  0.23507893    -0.06500
N346        N  0.57328329  0.20389352  0.06872687    -0.25300
H347        H  0.71218181  0.28074784  0.07513236     0.07300
N348        N  0.71588171  0.00598592  0.05614878    -0.46500
H349        H  0.72012847  0.15704158  0.26653187     0.07300
C350        C  0.52108545  0.23082527  0.23063950     0.43000
C351        C  0.70709308  0.99406541  0.18773433    -0.06000
Co352      Co  0.62497273  0.11787747  0.20595311     0.73800
N353        N  0.71049041  0.23568657  0.17890182    -0.46200
C354        C  0.52262983  0.00793065  0.00539512     0.43300
N355        N  0.53821469  0.06064696  0.23249151    -0.46200
Co356      Co  0.62513624  0.20781079  0.12068383     0.73900
C357        C  0.53423044  0.23002502  0.06279519    -0.06500
C358        C  0.71981545  0.06834133  0.00535827    -0.06100
N359        N  0.57345797  0.03287137  0.16731229    -0.25600
N360        N  0.70797298  0.19492108  0.99378292    -0.46400
H361        H  0.53898724  0.07415011  0.95972321     0.07300
C362        C  0.54067100  0.18389649  0.24302003    -0.06500
Cl363      Cl  0.62657927  0.11971607  0.11812239    -0.49500
C364        C  0.73442580  0.22069944  0.21733464     0.43000
H365        H  0.52944602  0.97115037  0.15444762     0.07200
N366        N  0.54387657  0.24320519  0.18941646    -0.46200
C367        C  0.58642655  0.59403186  0.14106613     0.86900
C368        C  0.56092185  0.62802599  0.10696370    -0.53300
C369        C  0.59103387  0.65346853  0.07846370     0.09800
C370        C  0.64363624  0.64520547  0.08802137     0.20800
C371        C  0.61997310  0.56493403  0.10917273    -0.54100
C372        C  0.65028807  0.59150643  0.08203956     0.09900
C373        C  0.61833825  0.62861009  0.16944348    -0.53600
C374        C  0.64846947  0.65461972  0.14159372     0.10500
H375        H  0.52269009  0.63282716  0.10540304     0.15000
H376        H  0.66775487  0.66724645  0.06582592     0.00700
H377        H  0.61992413  0.52622524  0.10843948     0.15300
H378        H  0.61544788  0.63464621  0.20782400     0.15100
C379        C  0.16216686  0.65750631  0.62609207     0.86900
C380        C  0.18104009  0.61351164  0.59918957    -0.53300
C381        C  0.14652986  0.58249519  0.58457086     0.09800
C382        C  0.09593018  0.59932459  0.59556240     0.20800
C383        C  0.12714033  0.68007601  0.59150232    -0.54100
C384        C  0.09321126  0.64998419  0.57541731     0.09900
C385        C  0.12913828  0.63818979  0.66559630    -0.53600
C386        C  0.09491657  0.60690390  0.65012593     0.10500
H387        H  0.21860080  0.60711909  0.59240253     0.15000
H388        H  0.06877194  0.57434394  0.58179717     0.00700
H389        H  0.12354240  0.71749686  0.58430731     0.15300
H390        H  0.13186891  0.65015001  0.70257571     0.15100
C391        C  0.25667258  0.25039764  0.45870913     0.42900
N392        N  0.27850077  0.30352419  0.40582326     0.01800
C393        C  0.49795866  0.31020097  0.28143099    -0.06100
H394        H  0.50638075  0.34249858  0.46623970     0.07200
C395        C  0.42256718  0.48908998  0.45748679    -0.06500
Co396      Co  0.37372751  0.28014529  0.35952843     0.74200
N397        N  0.45120611  0.32194073  0.41725537    -0.25700
Co398      Co  0.45308734  0.37381902  0.36593710     0.74100
C399        C  0.46886954  0.47465767  0.47802735     0.43000
N400        N  0.30356003  0.44572921  0.41652032     0.01400
N401        N  0.44851343  0.42643113  0.42016295     0.01500
N402        N  0.44744916  0.24808073  0.28215553    -0.46500
H403        H  0.32673567  0.20894323  0.44723095     0.07200
N404        N  0.42136807  0.28570836  0.41565370     0.01800
N405        N  0.44871039  0.42686820  0.31567686     0.01500
C406        C  0.46566543  0.47513106  0.26014428     0.43100
N407        N  0.27330426  0.41001976  0.41072274    -0.25100
C408        C  0.32747824  0.25370335  0.26404412    -0.06000
N409        N  0.24329733  0.29084989  0.43564215    -0.46200
N410        N  0.48075075  0.43569919  0.28234815    -0.46400
C411        C  0.28484594  0.26665200  0.23799078     0.42900
N412        N  0.43229170  0.28299157  0.31133864     0.01700
N413        N  0.27677588  0.42083387  0.30711003    -0.25100
N414        N  0.31484826  0.27372212  0.40740140    -0.25600
N415        N  0.30769151  0.45609286  0.31193163     0.01400
H416        H  0.21235644  0.41502223  0.26489399     0.07300
H417        H  0.40007260  0.52185395  0.27602507     0.07300
N418        N  0.46168546  0.31956914  0.31246838    -0.25700
N419        N  0.41290547  0.45713565  0.42196297    -0.25300
N420        N  0.29041410  0.31091302  0.30085993     0.01800
C421        C  0.46199008  0.27532672  0.47880045     0.43200
C422        C  0.23894614  0.41310448  0.44359188    -0.06500
N423        N  0.41402434  0.45872963  0.31708893    -0.25300
H424        H  0.40150677  0.52033573  0.46597608     0.07300
N425        N  0.42770222  0.25574700  0.45129029    -0.46500
H426        H  0.20833007  0.38995134  0.44633143     0.07300
C427        C  0.25824041  0.48311381  0.25807834     0.43000
C428        C  0.30445108  0.23931159  0.43957625    -0.06000
Co429      Co  0.27882101  0.36107765  0.35560367     0.73800
N430        N  0.29055520  0.47469966  0.45195433    -0.46200
C431        C  0.48844417  0.26249143  0.26072977     0.43300
N432        N  0.26367936  0.30262305  0.26285718    -0.46200
Co433      Co  0.35945160  0.45528020  0.36737308     0.73900
C434        C  0.42169000  0.49081496  0.28290396    -0.06500
C435        C  0.47778047  0.31872367  0.45622617    -0.06100
N436        N  0.32690954  0.28134212  0.30298339    -0.25600
N437        N  0.48219864  0.43570088  0.45238698    -0.46400
H438        H  0.52938897  0.33198130  0.27712065     0.07300
C439        C  0.24396982  0.43484139  0.27433864    -0.06500
Cl440      Cl  0.36616842  0.36768815  0.36201245    -0.49500
C441        C  0.25072175  0.45537348  0.47088438     0.43000
H442        H  0.35416099  0.22708096  0.25599569     0.07200
N443        N  0.29784412  0.49318965  0.28394975    -0.46200
C444        C  0.70837104  0.71441707  0.72000524     0.42900
N445        N  0.69319119  0.66846474  0.66105003     0.01800
C446        C  0.48952315  0.65416491  0.52903620    -0.06100
H447        H  0.45773298  0.65572782  0.71254810     0.07200
C448        C  0.55950210  0.49643977  0.71157522    -0.06500
Co449      Co  0.60490728  0.69844525  0.61016430     0.74200
N450        N  0.52144480  0.66456589  0.66956720    -0.25700
Co451      Co  0.52289194  0.60621126  0.62083206     0.74100
C452        C  0.51663656  0.51333077  0.73572477     0.43000
N453        N  0.67241797  0.52648336  0.66866405     0.01400
N454        N  0.53035558  0.55760347  0.67565061     0.01500
N455        N  0.54175886  0.71509924  0.52191164    -0.46500
H456        H  0.64346939  0.76187094  0.70524089     0.07200
N457        N  0.55131948  0.70049667  0.66466079     0.01800
N458        N  0.52187764  0.54902259  0.57119780     0.01500
C459        C  0.49901049  0.49880911  0.51606611     0.43100
N460        N  0.70448416  0.56059163  0.66391354    -0.25100
C461        C  0.67030983  0.73397008  0.52376416    -0.06000
N462        N  0.72435364  0.67621864  0.69534550    -0.46200
N463        N  0.48714261  0.53917425  0.54025166    -0.46400
C464        C  0.71689771  0.72075056  0.50259347     0.42900
N465        N  0.55070192  0.68921923  0.56016619     0.01700
N466        N  0.69399123  0.56013925  0.56003000    -0.25100
N467        N  0.65850967  0.70036884  0.66090896    -0.25600
N468        N  0.66412605  0.52413486  0.56466699     0.01400
H469        H  0.75472052  0.57210590  0.51513014     0.07300
H470        H  0.56651757  0.45309823  0.52714236     0.07300
N471        N  0.52008676  0.65391314  0.56523432    -0.25700
N472        N  0.56503019  0.52581714  0.67470949    -0.25300
N473        N  0.69422293  0.66821780  0.55590199     0.01800
C474        C  0.50051709  0.72546954  0.71884287     0.43200
C475        C  0.74184748  0.54981727  0.69264492    -0.06500
N476        N  0.55669241  0.51742477  0.56981273    -0.25300
H477        H  0.58094465  0.46531772  0.71863431     0.07300
N478        N  0.53940935  0.73772865  0.69244957    -0.46500
H479        H  0.77480275  0.56960786  0.69439659     0.07300
C480        C  0.71317687  0.50146195  0.51063687     0.43000
C481        C  0.66524114  0.73105342  0.69700878    -0.06000
Co482      Co  0.69704757  0.61460510  0.61005783     0.73800
N483        N  0.68600330  0.49298441  0.69959628    -0.46200
C484        C  0.50353630  0.69481540  0.50064626     0.43300
N485        N  0.72901296  0.67959273  0.52503719    -0.46200
Co486      Co  0.61445591  0.52276778  0.61950988     0.73900
C487        C  0.54552441  0.48431354  0.53592139    -0.06500
C488        C  0.48868837  0.67665765  0.70331255    -0.06100
N489        N  0.65934457  0.69984605  0.55619340    -0.25600
N490        N  0.49990586  0.55071173  0.71111338    -0.46400
H491        H  0.46145187  0.62852143  0.52344290     0.07300
C492        C  0.72455045  0.55026568  0.52484238    -0.06500
Cl493      Cl  0.60994374  0.61053599  0.61515627    -0.49500
C494        C  0.72963870  0.50484454  0.71715116     0.43000
H495        H  0.65010488  0.76624057  0.51833424     0.07200
N496        N  0.67500067  0.48781254  0.53636339    -0.46200
C497        C  0.59418378  0.16773819  0.59042559     0.86900
C498        C  0.56546655  0.13410418  0.62291096    -0.53300
C499        C  0.59235889  0.10247350  0.64818677     0.09800
C500        C  0.64568201  0.10884949  0.63960493     0.20800
C501        C  0.62894336  0.19258126  0.62334123    -0.54100
C502        C  0.65565774  0.16191125  0.64881438     0.09900
C503        C  0.62468168  0.13299637  0.55985059    -0.53600
C504        C  0.65150617  0.10210453  0.58572452     0.10500
H505        H  0.52690751  0.13444757  0.62458367     0.15000
H506        H  0.66807574  0.08422389  0.65985908     0.00700
H507        H  0.63286297  0.23103834  0.62579112     0.15300
H508        H  0.62352835  0.13066852  0.52123703     0.15100
C509        C  0.09138486  0.09039595  0.15609194     0.86900
C510        C  0.05752355  0.11957053  0.12476069    -0.53300
C511        C  0.08026980  0.14562883  0.09046626     0.09800
C512        C  0.13448371  0.14010352  0.08996045     0.20800
C513        C  0.11928814  0.06056894  0.11895471    -0.54100
C514        C  0.14221470  0.08621682  0.08476115     0.09900
C515        C  0.12695000  0.12624368  0.17569204    -0.53600
C516        C  0.14980931  0.15188871  0.14139721     0.10500
H517        H  0.01908694  0.11953904  0.12899792     0.15000
H518        H  0.15229714  0.16178284  0.06210857     0.00700
H519        H  0.11964914  0.02213691  0.11773038     0.15300
H520        H  0.13534422  0.12934840  0.21357290     0.15100
C521        C  0.19163287  0.18079040  0.15422062    -0.04900
C522        C  0.22891772  0.15845667  0.17887594    -0.02000
C523        C  0.26113496  0.18590625  0.20532521     0.02900
C524        C  0.25888710  0.23641570  0.20320215    -0.04900
C525        C  0.22689127  0.25813825  0.17115994    -0.02000
C526        C  0.19228593  0.23040194  0.14763800     0.02900
C527        C  0.23334723  0.10680732  0.17782943     0.37600
C528        C  0.22880873  0.30917286  0.16341468     0.37600
C529        C  0.15666115  0.25325504  0.11844851     0.36000
C530        C  0.29269968  0.16099752  0.23756741     0.36000
N531        N  0.12893963  0.27249482  0.09503691    -0.38800
N532        N  0.31706102  0.13994614  0.26313022    -0.38800
N533        N  0.23066709  0.34982616  0.15718054    -0.38300
N534        N  0.23724559  0.06578546  0.17655920    -0.38300
C535        C  0.49436784  0.24756703  0.50768035    -0.04900
C536        C  0.48935845  0.24780234  0.55776457    -0.02000
C537        C  0.52408484  0.22554589  0.58576721     0.02900
C538        C  0.56361514  0.20294141  0.56311097    -0.04900
C539        C  0.57276770  0.21282685  0.51433312    -0.02000
C540        C  0.53616153  0.23000833  0.48581193     0.02900
C541        C  0.44886301  0.27133181  0.58024928     0.37600
C542        C  0.62097788  0.21383220  0.49539371     0.37600
C543        C  0.54203943  0.23039476  0.43400273     0.36000
C544        C  0.52019314  0.22817355  0.63762616     0.36000
N545        N  0.54643885  0.23017239  0.39273186    -0.38800
N546        N  0.51706142  0.23041699  0.67896276    -0.38800
N547        N  0.65937771  0.21525770  0.48025525    -0.38300
N548        N  0.41662568  0.29026220  0.59806174    -0.38300
C549        C  0.15894035  0.53691478  0.56065066    -0.04900
C550        C  0.14573321  0.52850011  0.51282351    -0.02000
C551        C  0.17621063  0.50198537  0.48275500     0.02900
C552        C  0.21736771  0.48086330  0.50214152    -0.04900
C553        C  0.22422543  0.48075158  0.55197087    -0.02000
C554        C  0.19386694  0.50789843  0.58143919     0.02900
C555        C  0.09942068  0.54295448  0.49589505     0.37600
C556        C  0.26235923  0.45303454  0.57265728     0.37600
C557        C  0.19536246  0.50300663  0.63296180     0.36000
C558        C  0.16602246  0.49789678  0.43194297     0.36000
N559        N  0.19553631  0.49704255  0.67391893    -0.38800
N560        N  0.15787051  0.49482903  0.39142126    -0.38800
N561        N  0.29284089  0.43087201  0.58899624    -0.38300
N562        N  0.06169056  0.55227168  0.48245592    -0.38300
C563        C  0.55507448  0.56103284  0.17128995    -0.04900
C564        C  0.51048562  0.54375180  0.15412900    -0.02000
C565        C  0.48026574  0.51779606  0.18439807     0.02900
C566        C  0.49627105  0.50395676  0.22958996    -0.04900
C567        C  0.54254574  0.51528989  0.24469330    -0.02000
C568        C  0.57251841  0.54203860  0.21504364     0.02900
C569        C  0.49675219  0.54711529  0.10432320     0.37600
C570        C  0.55912594  0.50054407  0.29158498     0.37600
C571        C  0.62185865  0.54695746  0.22939920     0.36000
C572        C  0.43312160  0.50374246  0.16829737     0.36000
N573        N  0.66072714  0.55075882  0.24234065    -0.38800
N574        N  0.39554152  0.49278778  0.15552750    -0.38800
N575        N  0.57224054  0.48884170  0.32890695    -0.38300
N576        N  0.48377936  0.54832510  0.06509908    -0.38300
C577        C  0.82161341  0.30903362  0.30250020    -0.04900
C578        C  0.84075149  0.26706307  0.28199133    -0.02000
C579        C  0.81148028  0.23726058  0.25480847     0.02900
C580        C  0.76467390  0.25163273  0.24533969    -0.04900
C581        C  0.74690847  0.29581199  0.26207767    -0.02000
C582        C  0.77599330  0.32507969  0.29004757     0.02900
C583        C  0.89089886  0.25567829  0.28697170     0.37600
C584        C  0.69866675  0.31086620  0.25135027     0.37600
C585        C  0.76019204  0.37274064  0.30320234     0.36000
C586        C  0.82961762  0.19240975  0.23578335     0.36000
N587        N  0.74726709  0.41070860  0.31327218    -0.38800
N588        N  0.84381539  0.15656403  0.22065272    -0.38800
N589        N  0.66029466  0.32297974  0.24280382    -0.38300
N590        N  0.93086760  0.24660778  0.29071369    -0.38300
C591        C  0.94534022  0.43160897  0.31785542    -0.04900
C592        C  0.92353161  0.46181946  0.28375321    -0.02000
C593        C  0.95146170  0.48750357  0.25156027     0.02900
C594        C  0.00155736  0.48264951  0.25244597    -0.04900
C595        C  0.02312627  0.45476930  0.28816810    -0.02000
C596        C  0.99510770  0.43410336  0.32384552     0.02900
C597        C  0.87208869  0.46796557  0.28222848     0.37600
C598        C  0.07408826  0.44620142  0.28838673     0.37600
C599        C  0.01725202  0.42395567  0.36941629     0.36000
C600        C  0.92772074  0.51942367  0.21858980     0.36000
N601        N  0.03524311  0.41685048  0.40587706    -0.38800
N602        N  0.90827545  0.54467589  0.19264286    -0.38800
N603        N  0.11461324  0.43890946  0.28885853    -0.38300
N604        N  0.83132933  0.47357997  0.28091776    -0.38300
C605        C  0.97681133  0.23017681  0.48155197    -0.04900
C606        C  0.97229761  0.27715235  0.49915251    -0.02000
C607        C  0.94548333  0.30965966  0.47349906     0.02900
C608        C  0.91913773  0.29405220  0.43359106    -0.04900
C609        C  0.91435299  0.24484923  0.42415365    -0.02000
C610        C  0.94561426  0.21296887  0.44617350     0.02900
C611        C  0.99438917  0.29216141  0.54391198     0.37600
C612        C  0.87608966  0.22644758  0.39496777     0.37600
C613        C  0.94635620  0.16307562  0.43198716     0.36000
C614        C  0.94644008  0.35906376  0.48840338     0.36000
N615        N  0.94724020  0.12320922  0.42104200    -0.38800
N616        N  0.94991942  0.39741256  0.50325149    -0.38800
N617        N  0.84478407  0.20978189  0.37392329    -0.38300
N618        N  0.01154139  0.30419587  0.57965002    -0.38300
C619        C  0.81378056  0.41331339  0.43705591    -0.04900
C620        C  0.76526245  0.39924105  0.43835320    -0.02000
C621        C  0.73180588  0.42794632  0.46279033     0.02900
C622        C  0.74744086  0.46709617  0.49037348    -0.04900
C623        C  0.79644403  0.47326897  0.49861228    -0.02000
C624        C  0.82929324  0.44981722  0.46911544     0.02900
C625        C  0.74849532  0.35633491  0.41469009     0.37600
C626        C  0.81373546  0.50239558  0.53829895     0.37600
C627        C  0.87804958  0.46694386  0.47041066     0.36000
C628        C  0.68135461  0.41751285  0.45883727     0.36000
N629        N  0.91572002  0.48361886  0.47073222    -0.38800
N630        N  0.64119805  0.40897515  0.45578521    -0.38800
N631        N  0.82798392  0.52519985  0.56989319    -0.38300
N632        N  0.73373262  0.32173496  0.39744961    -0.38300
C633        C  0.30207205  0.83248073  0.28884451    -0.04900
C634        C  0.31469801  0.82388019  0.24071044    -0.02000
C635        C  0.28000458  0.80782454  0.20879103     0.02900
C636        C  0.23650325  0.79048663  0.22722493    -0.04900
C637        C  0.22151644  0.80597929  0.27328466    -0.02000
C638        C  0.25443183  0.82819659  0.30387188     0.02900
C639        C  0.36367549  0.82876899  0.22461061     0.37600
C640        C  0.17328091  0.79796622  0.29006695     0.37600
C641        C  0.24006036  0.84295181  0.35171335     0.36000
C642        C  0.28889762  0.81049371  0.15768152     0.36000
N643        N  0.22733375  0.85471401  0.38950061    -0.38800
N644        N  0.29612172  0.81343932  0.11693451    -0.38800
N645        N  0.13494445  0.79193962  0.30407378    -0.38300
N646        N  0.40275574  0.83236382  0.21185906    -0.38300
C647        C  0.48264733  0.99520879  0.24991086    -0.04900
C648        C  0.43788554  0.98010324  0.23354398    -0.02000
C649        C  0.40942684  0.95104305  0.26265642     0.02900
C650        C  0.42719315  0.93522843  0.30713415    -0.04900
C651        C  0.46897444  0.95599080  0.32593165    -0.02000
C652        C  0.49752119  0.98466262  0.29685478     0.02900
C653        C  0.42114294  0.99455818  0.18672430     0.37600
C654        C  0.48147106  0.94952810  0.37592712     0.37600
C655        C  0.54341532  0.00063287  0.31451030     0.36000
C656        C  0.36164722  0.93990917  0.24705260     0.36000
N657        N  0.58006161  0.01309048  0.32858509    -0.38800
N658        N  0.32319094  0.93335514  0.23393025    -0.38800
N659        N  0.49105593  0.94484674  0.41588383    -0.38300
N660        N  0.40775542  0.00601968  0.14943023    -0.38300
C661        C  0.32134631  0.91528766  0.43027095    -0.04900
C662        C  0.31652954  0.96410777  0.41877140    -0.02000
C663        C  0.28014159  0.99162147  0.43960289     0.02900
C664        C  0.25292565  0.97336890  0.47767116    -0.04900
C665        C  0.25981434  0.92579498  0.49219742    -0.02000
C666        C  0.29316066  0.89656134  0.46806431     0.02900
C667        C  0.35077398  0.98818588  0.38846141     0.37600
C668        C  0.23327644  0.90663808  0.53245812     0.37600
C669        C  0.29738836  0.84738753  0.48285469     0.36000
C670        C  0.26991598  0.03854199  0.42058188     0.36000
N671        N  0.30000621  0.80873665  0.49658312    -0.38800
N672        N  0.26160758  0.07565466  0.40498787    -0.38800
N673        N  0.21218057  0.89123004  0.56448396    -0.38300
N674        N  0.37707899  0.00993195  0.36536205    -0.38300
C675        C  0.43059043  0.77507467  0.39530535    -0.04900
C676        C  0.40400502  0.74424411  0.42530291    -0.02000
C677        C  0.42734152  0.71629689  0.45918651     0.02900
C678        C  0.47763833  0.71570541  0.46015342    -0.04900
C679        C  0.50338660  0.73658731  0.42231640    -0.02000
C680        C  0.47970727  0.76520494  0.38886194     0.02900
C681        C  0.35248657  0.74124551  0.42169798     0.37600
C682        C  0.55406397  0.72754100  0.41716852     0.37600
C683        C  0.50486831  0.77861203  0.34564468     0.36000
C684        C  0.39875774  0.69111166  0.49426342     0.36000
N685        N  0.52558113  0.78847924  0.31116720    -0.38800
N686        N  0.37501472  0.67129486  0.52161624    -0.38800
N687        N  0.59438164  0.71999456  0.41312219    -0.38300
N688        N  0.31161954  0.73788592  0.41799464    -0.38300
C689        C  0.25207227  0.26001526  0.73941331    -0.04900
C690        C  0.25526764  0.24226888  0.78584099    -0.02000
C691        C  0.27873021  0.26889132  0.82100702     0.02900
C692        C  0.30207547  0.31237393  0.80873243    -0.04900
C693        C  0.29409340  0.33209123  0.76280842    -0.02000
C694        C  0.26979269  0.30527838  0.72800705     0.02900
C695        C  0.23436647  0.19630327  0.79733439     0.37600
C696        C  0.31024947  0.37930155  0.75000541     0.37600
C697        C  0.26487167  0.32316726  0.67958749     0.36000
C698        C  0.27851236  0.25024489  0.86941881     0.36000
N699        N  0.26098029  0.33699267  0.64088663    -0.38800
N700        N  0.27887688  0.23334705  0.90707772    -0.38800
N701        N  0.32184338  0.41709269  0.73850599    -0.38300
N702        N  0.21790253  0.15966280  0.80631775    -0.38300
C703        C  0.29651872  0.42245028  0.92596643    -0.04900
C704        C  0.30211010  0.47218027  0.92253915    -0.02000
C705        C  0.27762660  0.50190976  0.95476187     0.02900
C706        C  0.24520714  0.48179929  0.98740458    -0.04900
C707        C  0.23456199  0.43314117  0.98613077    -0.02000
C708        C  0.26026727  0.40330484  0.95523778     0.02900
C709        C  0.33060468  0.49328658  0.88495872     0.37600
C710        C  0.19759614  0.41384161  0.01699089     0.37600
C711        C  0.24787474  0.35335907  0.95264569     0.36000
C712        C  0.28560501  0.55307634  0.95436446     0.36000
N713        N  0.23559808  0.31409414  0.95170250    -0.38800
N714        N  0.29201892  0.59379832  0.95432565    -0.38800
N715        N  0.16810362  0.39848581  0.04146932    -0.38300
N716        N  0.35119813  0.51175203  0.85431205    -0.38300
C717        C  0.47801155  0.23219948  0.99071940    -0.04900
C718        C  0.49012217  0.24122666  0.94262114    -0.02000
C719        C  0.45999921  0.26907618  0.91514869     0.02900
C720        C  0.41994188  0.29149576  0.93703276    -0.04900
C721        C  0.40386174  0.27462008  0.98225052    -0.02000
C722        C  0.43409154  0.24658730  0.00982141     0.02900
C723        C  0.53452772  0.22411694  0.92158362     0.37600
C724        C  0.35523786  0.28038940  0.99889684     0.37600
C725        C  0.41955113  0.23132518  0.05737937     0.36000
C726        C  0.46997986  0.27317653  0.86407590     0.36000
N727        N  0.40793800  0.21909556  0.09516278    -0.38800
N728        N  0.47797285  0.27612413  0.82347669    -0.38800
N729        N  0.31683593  0.28390402  0.01368219    -0.38300
N730        N  0.56975068  0.21063032  0.90454589    -0.38300
C731        C  0.42752553  0.42598206  0.82218183    -0.04900
C732        C  0.45032714  0.46608113  0.84270930    -0.02000
C733        C  0.47879911  0.49547447  0.81396912     0.02900
C734        C  0.48584053  0.48367841  0.76537486    -0.04900
C735        C  0.46477540  0.44252616  0.74528626    -0.02000
C736        C  0.43673149  0.41294507  0.77410773     0.02900
C737        C  0.44637948  0.47578709  0.89379142     0.37600
C738        C  0.47241493  0.43020021  0.69512109     0.37600
C739        C  0.42168931  0.36688427  0.75558239     0.36000
C740        C  0.50214384  0.53691240  0.83461375     0.36000
N741        N  0.41063248  0.32996925  0.74054394    -0.38800
N742        N  0.52089708  0.56989965  0.85100640    -0.38800
N743        N  0.47852669  0.42030487  0.65518823    -0.38300
N744        N  0.44342693  0.48341313  0.93453620    -0.38300
C745        C  0.24130330  0.74968659  0.71776073    -0.04900
C746        C  0.21587116  0.76901574  0.67902460    -0.02000
C747        C  0.20147548  0.73927628  0.64130022     0.02900
C748        C  0.20080151  0.68935260  0.64786629    -0.04900
C749        C  0.23083381  0.67030453  0.68352228    -0.02000
C750        C  0.25211919  0.70044245  0.71748818     0.02900
C751        C  0.20357858  0.81925411  0.67765650     0.37600
C752        C  0.24190594  0.61997558  0.68486092     0.37600
C753        C  0.28594765  0.68017758  0.75088870     0.36000
C754        C  0.19592743  0.76020724  0.59439752     0.36000
N755        N  0.31304338  0.66366586  0.77703442    -0.38800
N756        N  0.19187107  0.77740166  0.55710859    -0.38800
N757        N  0.25331751  0.58048777  0.68677767    -0.38300
N758        N  0.19363304  0.85924691  0.67658558    -0.38300
C759        C  0.23140504  0.00582715  0.98899543    -0.04900
C760        C  0.24859007  0.04859926  0.00913311    -0.02000
C761        C  0.21838149  0.07734798  0.03726923     0.02900
C762        C  0.17127630  0.06221935  0.04695030    -0.04900
C763        C  0.15346164  0.02062258  0.02376927    -0.02000
C764        C  0.18376437  0.99228226  0.99532742     0.02900
C765        C  0.29833594  0.06171873  0.00324903     0.37600
C766        C  0.10348692  0.00774953  0.02747069     0.37600
C767        C  0.16599571  0.94910514  0.97260496     0.36000
C768        C  0.23710286  0.12179795  0.05601477     0.36000
N769        N  0.15177179  0.91469899  0.95455551    -0.38800
N770        N  0.25393970  0.15730739  0.06872587    -0.38800
N771        N  0.06368965  0.99754651  0.03040798    -0.38300
N772        N  0.33798823  0.07196487  0.99880713    -0.38300
C773        C  0.51519995  0.73748262  0.98048261    -0.04900
C774        C  0.55115204  0.75962148  0.00800932    -0.02000
C775        C  0.57956936  0.73195445  0.03821907     0.02900
C776        C  0.57288854  0.68232158  0.03916682    -0.04900
C777        C  0.54332968  0.65991860  0.00546211    -0.02000
C778        C  0.51165390  0.68713130  0.97900322     0.02900
C779        C  0.55837654  0.81078074  0.00601827     0.37600
C780        C  0.54702049  0.60892410  0.99682625     0.37600
C781        C  0.47291026  0.66257936  0.95504265     0.36000
C782        C  0.61551838  0.75471912  0.06750961     0.36000
N783        N  0.44188298  0.64241430  0.93678876    -0.38800
N784        N  0.64456612  0.77413115  0.08946033    -0.38800
N785        N  0.55121795  0.56863314  0.98868430    -0.38300
N786        N  0.56432183  0.85152900  0.00449663    -0.38300
C787        C  0.52027154  0.99688321  0.73227497    -0.04900
C788        C  0.50590574  0.00508959  0.68472853    -0.02000
C789        C  0.53111847  0.03754707  0.65645343     0.02900
C790        C  0.57109612  0.06209112  0.67547813    -0.04900
C791        C  0.58895927  0.04816098  0.72086736    -0.02000
C792        C  0.56232746  0.01729387  0.74978953     0.02900
C793        C  0.46364333  0.98234451  0.66520571     0.37600
C794        C  0.63506753  0.06288933  0.73845659     0.37600
C795        C  0.57821593  0.00639605  0.79794800     0.36000
C796        C  0.51512184  0.04492343  0.60768129     0.36000
N797        N  0.59046596  0.99787943  0.83643391    -0.38800
N798        N  0.50044462  0.05077480  0.56954601    -0.38800
N799        N  0.67231542  0.07179292  0.75360898    -0.38300
N800        N  0.43017751  0.96431641  0.64924608    -0.38300
C801        C  0.69327829  0.17908042  0.67992658    -0.04900
C802        C  0.73628248  0.19496469  0.65967010    -0.02000
C803        C  0.77158884  0.21383054  0.68952359     0.02900
C804        C  0.76298007  0.21733926  0.73958505    -0.04900
C805        C  0.72285735  0.19443699  0.75951113    -0.02000
C806        C  0.68578669  0.18040613  0.72957349     0.02900
C807        C  0.74314187  0.19402477  0.60796337     0.37600
C808        C  0.71961149  0.18455510  0.81034931     0.37600
C809        C  0.63855585  0.17306365  0.74950107     0.36000
C810        C  0.81579457  0.22997003  0.66801201     0.36000
N811        N  0.60076691  0.16803996  0.76535707    -0.38800
N812        N  0.85076663  0.24256757  0.65009461    -0.38800
N813        N  0.71689631  0.17613364  0.85079523    -0.38300
N814        N  0.74855182  0.19328841  0.56681585    -0.38300
C815        C  0.00234746  0.23411269  0.99429779    -0.04900
C816        C  0.02960034  0.19595558  0.97587679    -0.02000
C817        C  0.05610242  0.16753915  0.00711126     0.02900
C818        C  0.05456266  0.17658739  0.05700970    -0.04900
C819        C  0.02834446  0.21561090  0.07518916    -0.02000
C820        C  0.00229965  0.24432750  0.04407407     0.02900
C821        C  0.02971201  0.18507839  0.92483436     0.37600
C822        C  0.03097844  0.22915256  0.12536954     0.37600
C823        C  0.97742582  0.28566974  0.06366241     0.36000
C824        C  0.08472778  0.12940988  0.98686760     0.36000
N825        N  0.95766114  0.31846678  0.07949840    -0.38800
N826        N  0.10709992  0.10030790  0.96767636    -0.38800
N827        N  0.03305089  0.24270617  0.16455005    -0.38300
N828        N  0.03011543  0.17632090  0.88421048    -0.38300
C829        C  0.74828067  0.51569343  0.99234740    -0.04900
C830        C  0.72555152  0.55609655  0.97393149    -0.02000
C831        C  0.69405967  0.58235348  0.00320604     0.02900
C832        C  0.68738332  0.56917920  0.05166711    -0.04900
C833        C  0.71467984  0.53185005  0.07096654    -0.02000
C834        C  0.74191364  0.50287554  0.04070936     0.02900
C835        C  0.73445224  0.57037879  0.92478843     0.37600
C836        C  0.71700819  0.52429481  0.12229105     0.37600
C837        C  0.76026795  0.45822735  0.05909835     0.36000
C838        C  0.66914889  0.62235228  0.98263094     0.36000
N839        N  0.77433056  0.42247793  0.07373027    -0.38800
N840        N  0.65078534  0.65445754  0.96477233    -0.38800
N841        N  0.72045076  0.51783116  0.16298148    -0.38300
N842        N  0.74174419  0.58183321  0.88570631    -0.38300
C843        C  0.99813430  0.53108371  0.74399906    -0.04900
C844        C  0.04536253  0.54064988  0.75849143    -0.02000
C845        C  0.07671031  0.56501875  0.72790628     0.02900
C846        C  0.06067172  0.58264918  0.68329402    -0.04900
C847        C  0.01176574  0.57722310  0.67151784    -0.02000
C848        C  0.98038996  0.55443859  0.70334609     0.02900
C849        C  0.06237478  0.52661834  0.80533034     0.37600
C850        C  0.99237320  0.59217303  0.62607164     0.37600
C851        C  0.92949381  0.55787437  0.69518970     0.36000
C852        C  0.12628047  0.56843727  0.74197791     0.36000
N853        N  0.88908569  0.56157297  0.68828105    -0.38800
N854        N  0.16534193  0.57099978  0.75460504    -0.38800
N855        N  0.97459297  0.60138579  0.59001764    -0.38300
N856        N  0.07679663  0.51632531  0.84257258    -0.38300
C857        C  0.67848942  0.69280256  0.16135795    -0.04900
C858        C  0.65734148  0.72919572  0.18937595    -0.02000
C859        C  0.68613110  0.76196704  0.21378099     0.02900
C860        C  0.73635861  0.75724932  0.21121540    -0.04900
C861        C  0.75684907  0.72583439  0.17710163    -0.02000
C862        C  0.72792521  0.69321903  0.15243872     0.02900
C863        C  0.60581720  0.73349753  0.19239314     0.37600
C864        C  0.80758319  0.72711559  0.16699148     0.37600
C865        C  0.74972800  0.65940215  0.11938143     0.36000
C866        C  0.66327754  0.79940265  0.24192118     0.36000
N867        N  0.76832690  0.63341627  0.09283305    -0.38800
N868        N  0.64457089  0.82922431  0.26393671    -0.38800
N869        N  0.84797717  0.72791143  0.15871445    -0.38300
N870        N  0.56483390  0.73702601  0.19463322    -0.38300
C871        C  0.00479016  0.00585237  0.25095516    -0.04900
C872        C  0.04596064  0.98554070  0.22947758    -0.02000
C873        C  0.07899352  0.01477586  0.20629423     0.02900
C874        C  0.06690845  0.06250225  0.19602566    -0.04900
C875        C  0.03131084  0.08429915  0.22467522    -0.02000
C876        C  0.00034092  0.05622941  0.25221659     0.02900
C877        C  0.05549997  0.93470438  0.23098806     0.37600
C878        C  0.02903375  0.13565309  0.22982637     0.37600
C879        C  0.96640145  0.08036817  0.28350511     0.36000
C880        C  0.12737101  0.99738507  0.20036296     0.36000
N881        N  0.93995026  0.10082636  0.30813542    -0.38800
N882        N  0.16572572  0.98289092  0.19597390    -0.38800
N883        N  0.02675446  0.17622055  0.23690156    -0.38300
N884        N  0.06376590  0.89433959  0.23202088    -0.38300
C885        C  0.98348652  0.72324151  0.50378952    -0.04900
C886        C  0.01709167  0.69697153  0.47668522    -0.02000
C887        C  0.05292327  0.67203431  0.50027839     0.02900
C888        C  0.05242216  0.67021306  0.55066105    -0.04900
C889        C  0.01863127  0.69683286  0.57761309    -0.02000
C890        C  0.98353221  0.72267713  0.55395572     0.02900
C891        C  0.01653327  0.69806613  0.42460126     0.37600
C892        C  0.02215667  0.70081020  0.62942841     0.37600
C893        C  0.94871100  0.75037012  0.58099229     0.36000
C894        C  0.09356793  0.65434130  0.47311702     0.36000
N895        N  0.92086814  0.77245327  0.60237424    -0.38800
N896        N  0.12619881  0.64125353  0.45116495    -0.38800
N897        N  0.02494002  0.70450177  0.67066097    -0.38300
N898        N  0.01597225  0.69886710  0.38314187    -0.38300
C899        C  0.73135688  0.98878887  0.51836153    -0.04900
C900        C  0.68517043  0.99966947  0.50227895    -0.02000
C901        C  0.65825435  0.03459450  0.52612105     0.02900
C902        C  0.67871337  0.06186436  0.56382151    -0.04900
C903        C  0.72503109  0.05009451  0.58018226    -0.02000
C904        C  0.75085254  0.01327545  0.55770694     0.02900
C905        C  0.66619192  0.97806350  0.45879379     0.37600
C906        C  0.74770730  0.07540369  0.61937504     0.37600
C907        C  0.79839268  0.00137071  0.57422115     0.36000
C908        C  0.60959014  0.04192341  0.51061921     0.36000
N909        N  0.83625527  0.99209522  0.58730444    -0.38800
N910        N  0.57150684  0.04744206  0.49618763    -0.38800
N911        N  0.76742240  0.09311505  0.65117339    -0.38300
N912        N  0.65088757  0.96142553  0.42402901    -0.38300
C913        C  0.81865627  0.93369750  0.92154007    -0.04900
C914        C  0.77728336  0.95851412  0.90648866    -0.02000
C915        C  0.75089566  0.98578549  0.93929627     0.02900
C916        C  0.76807310  0.99325530  0.98606178    -0.04900
C917        C  0.81078840  0.97241861  0.00057367    -0.02000
C918        C  0.83668532  0.94329541  0.96843853     0.02900
C919        C  0.76142183  0.95778267  0.85699664     0.37600
C920        C  0.82783844  0.98086342  0.04905256     0.37600
C921        C  0.88202638  0.92552375  0.98489622     0.36000
C922        C  0.70458291  0.00399851  0.92520223     0.36000
N923        N  0.91844542  0.91343249  0.99969244    -0.38800
N924        N  0.66772120  0.01840392  0.91406570    -0.38800
N925        N  0.84114430  0.98747995  0.08772317    -0.38300
N926        N  0.74687419  0.95735603  0.81828723    -0.38300
C927        C  0.93590807  0.93261670  0.81346502    -0.04900
C928        C  0.91845090  0.96475023  0.77916597    -0.02000
C929        C  0.94956012  0.99563595  0.75560860     0.02900
C930        C  0.99818809  0.99719222  0.76868340    -0.04900
C931        C  0.01446117  0.96941124  0.80704035    -0.02000
C932        C  0.98350574  0.93686251  0.82932133     0.02900
C933        C  0.86814676  0.96671258  0.76776232     0.37600
C934        C  0.06313817  0.97431738  0.82358196     0.37600
C935        C  0.00145898  0.90819955  0.86811549     0.36000
C936        C  0.93113343  0.02327299  0.71595675     0.36000
N937        N  0.01699820  0.88692932  0.89969281    -0.38800
N938        N  0.91607689  0.04492296  0.68437106    -0.38800
N939        N  0.10186787  0.97825996  0.83691621    -0.38300
N940        N  0.82846737  0.96938073  0.75743138    -0.38300
C941        C  0.80514461  0.80494727  0.79574289    -0.04900
C942        C  0.77553610  0.77174876  0.82084314    -0.02000
C943        C  0.74359963  0.74241810  0.79590209     0.02900
C944        C  0.74071385  0.74540183  0.74612553    -0.04900
C945        C  0.76807951  0.77846243  0.72068224    -0.02000
C946        C  0.79822073  0.80998739  0.74531009     0.02900
C947        C  0.77642936  0.76785428  0.87278291     0.37600
C948        C  0.76485063  0.78013531  0.66860937     0.37600
C949        C  0.81704404  0.84916087  0.71770444     0.36000
C950        C  0.71354194  0.70890442  0.82144525     0.36000
N951        N  0.83091776  0.87944420  0.69347303    -0.38800
N952        N  0.68956528  0.68231033  0.84181231    -0.38800
N953        N  0.76239857  0.78115536  0.62723931    -0.38300
N954        N  0.77700541  0.76426927  0.91405879    -0.38300
C955        C  0.92931992  0.80826559  0.92242545    -0.04900
C956        C  0.91635818  0.80460795  0.97080825    -0.02000
C957        C  0.94863112  0.78560010  0.00345678     0.02900
C958        C  0.99020917  0.76217141  0.98643178    -0.04900
C959        C  0.00175216  0.76388836  0.93661367    -0.02000
C960        C  0.97139279  0.78736499  0.90500620     0.02900
C961        C  0.86836831  0.81655830  0.98636937     0.37600
C962        C  0.04395641  0.74123589  0.91651156     0.37600
C963        C  0.98236120  0.78842024  0.85397083     0.36000
C964        C  0.93938945  0.79267047  0.05422139     0.36000
N965        N  0.99075275  0.78919463  0.81333266    -0.38800
N966        N  0.93165303  0.79917230  0.09455375    -0.38800
N967        N  0.07730809  0.72330437  0.89976507    -0.38300
N968        N  0.82999495  0.82538444  0.99886409    -0.38300
loop_ 
_geom_bond_atom_site_label_1 
_geom_bond_atom_site_label_2 
_geom_bond_distance 
_geom_bond_site_symmetry_2 
_ccdc_geom_bond_type 
C1            C2   1.522       .  S
C1            C7   1.545       .  S
C1            C5   1.534       .  S
C1          C941   1.539       .  S
C2            H9   1.087       .  S
C2            C3   1.354       .  D
C3            C4   1.538       .  S
C3          C955   1.456       .  S
C4            C8   1.520       .  S
C4            C6   1.530       .  S
C4           H10   1.099       .  S
C5           H11   1.085       .  S
C5            C6   1.369       .  D
C6          C913   1.501       .  S
C7           H12   1.075       .  S
C7            C8   1.364       .  D
C8          C927   1.484       .  S
C13          N31   1.364       .  A
C13          C50   1.486       .  S
C13         C248   1.545   1_655  S
N14          N31   1.342       .  A
N14          N36   1.323       .  A
N14         Co51   2.142       .  S
C15          N40   1.355       .  A
C15          C53   1.470       .  S
C15          H60   1.081       .  S
H16          C57   1.082       .  S
C17          N41   1.359       .  A
C17          C21   1.480       .  S
C17          H46   1.081       .  S
Co18         N36   2.165       .  S
Co18         N26   2.067       .  S
Co18         N58   2.065       .  S
Co18         N34   2.160       .  S
Co18        Cl62   2.470       .  S
N19          C57   1.331       .  A
N19          N26   1.321       .  A
N19         Co20   2.062       .  S
Co20         N23   2.138       .  S
Co20         N40   2.126       .  S
Co20         N27   2.057       .  S
Co20        Cl62   2.454       .  S
C21          N59   1.364       .  A
C21         C464   1.535       .  S
N22          N29   1.323       .  A
N22          N52   1.317       .  A
N22         Co55   2.058       .  S
N23          N41   1.320       .  A
N23          N59   1.340       .  A
N24          C53   1.369       .  A
N24          N34   1.343       .  A
H25          C50   1.082   1_545  S
N26          N47   1.317       .  A
N27          N45   1.318       .  A
N27          N32   1.315       .  A
C28          N32   1.343       .  A
C28          C56   1.466       .  S
C28         C860   1.476       .  S
N29          C44   1.330       .  A
N29         Co51   2.068       .  S
C30          N58   1.332       .  A
C30          C33   1.462       .  S
C30          H64   1.079   1_565  S
C33          N54   1.349       .  A
C33         C871   1.483   1_665  S
N34          N40   1.320       .  A
N35          C61   1.357       .  A
N35          N37   1.323       .  A
N35         Co51   2.145       .  S
N36          C50   1.362       .  A
N37          N65   1.340       .  A
N37         Co55   2.140       .  S
H38          C61   1.081   1_455  S
H39          C56   1.081       .  S
N41         Co55   2.143       .  S
N42          N54   1.316       .  A
N42          N58   1.321       .  A
N42         Co51   2.076       .  S
C43          N47   1.346       .  A
C43          C57   1.455       .  S
C43         C899   1.461       .  S
C44          C63   1.453       .  S
C44          H48   1.082   1_655  S
N45          C56   1.335       .  A
N45         Co55   2.071       .  S
C49          N65   1.363       .  A
C49          C61   1.477       .  S
C49         C291   1.529   1_655  S
Co51        Cl62   2.465       .  S
N52          C63   1.341       .  A
C53         C314   1.533   1_565  S
Co55        Cl62   2.472       .  S
C63         C885   1.446       .  S
C66          N84   1.349       .  A
C66         C103   1.449       .  S
C66         C829   1.458       .  S
N67          N84   1.320       .  A
N67          N89   1.322       .  A
N67        Co104   2.078       .  S
C68          N93   1.336       .  A
C68         C106   1.460       .  S
C68         H113   1.081   1_655  S
H69         C110   1.079   1_455  S
C70          N94   1.334       .  A
C70          C74   1.470       .  S
C70          H99   1.078       .  S
Co71         N89   2.053       .  S
Co71         N79   2.157       .  S
Co71        N111   2.164       .  S
Co71         N87   2.066       .  S
Co71       Cl115   2.454       .  S
N72         C110   1.359       .  A
N72          N79   1.321       .  A
N72         Co73   2.142       .  S
Co73         N76   2.080       .  S
Co73         N93   2.080       .  S
Co73         N80   2.159       .  S
Co73       Cl115   2.481       .  S
C74         N112   1.350       .  A
C74         C843   1.492       .  S
N75          N82   1.322       .  A
N75         N105   1.342       .  A
N75        Co108   2.150       .  S
N76          N94   1.320       .  A
N76         N112   1.318       .  A
N77         C106   1.343       .  A
N77          N87   1.315       .  A
H78         C103   1.082   1_554  S
N79         N100   1.343       .  A
N80          N98   1.321       .  A
N80          N85   1.344   1_655  A
C81          N85   1.369   1_655  A
C81         C109   1.473       .  S
C81         C208   1.537   1_655  S
N82          C97   1.358       .  A
N82        Co104   2.142       .  S
C83         N111   1.363       .  A
C83          C86   1.487       .  S
C83         H117   1.082   1_556  S
C86         N107   1.368       .  A
C86         C322   1.553   1_556  S
N87          N93   1.324       .  A
N88         C114   1.327       .  A
N88          N90   1.320       .  A
N88        Co104   2.057       .  S
N89         C103   1.326       .  A
N90         N118   1.317       .  A
N90        Co108   2.072       .  S
H91         C114   1.079       .  S
H92         C109   1.080       .  S
N94        Co108   2.077       .  S
N95         N107   1.345       .  A
N95         N111   1.321       .  A
N95        Co104   2.153       .  S
C96         N100   1.367       .  A
C96         C110   1.479       .  S
C96         C281   1.543   1_656  S
C97         C116   1.478       .  S
C97         H101   1.082       .  S
N98         C109   1.356       .  A
N98        Co108   2.133       .  S
C102        N118   1.348       .  A
C102        C114   1.463       .  S
C102        C804   1.475       .  S
Co104      Cl115   2.483       .  S
N105        C116   1.366       .  A
C106        C815   1.469   1_655  S
Co108      Cl115   2.460       .  S
C116        C494   1.536       .  S
C119        N137   1.365       .  A
C119        C156   1.487       .  S
C119        C354   1.547   1_566  S
N120        N137   1.341       .  A
N120        N142   1.324       .  A
N120       Co157   2.150       .  S
C121        N146   1.356       .  A
C121        C159   1.473       .  S
C121        H166   1.082       .  S
H122        C163   1.081       .  S
C123        N147   1.354       .  A
C123        C127   1.472       .  S
C123        H152   1.082       .  S
Co124       N142   2.168       .  S
Co124       N132   2.079       .  S
Co124       N164   2.081       .  S
Co124       N140   2.167       .  S
Co124      Cl168   2.480       .  S
N125        C163   1.327       .  A
N125        N132   1.323       .  A
N125       Co126   2.061       .  S
Co126       N129   2.132       .  S
Co126       N146   2.129       .  S
Co126       N133   2.071       .  S
Co126      Cl168   2.455       .  S
C127        N165   1.361       .  A
C127        C474   1.516       .  S
N128        N135   1.321       .  A
N128        N158   1.316       .  A
N128       Co161   2.057       .  S
N129        N147   1.319       .  A
N129        N165   1.337       .  A
N130        C159   1.370       .  A
N130        N140   1.344       .  A
H131        C156   1.081   1_554  S
N132        N153   1.321       .  A
N133        N151   1.318       .  A
N133        N138   1.318       .  A
C134        N138   1.352       .  A
C134        C162   1.454       .  S
C134        C745   1.473       .  S
N135        C150   1.335       .  A
N135       Co157   2.072       .  S
C136        N164   1.336       .  A
C136        C139   1.454       .  S
C136        H170   1.082   1_556  S
C139        N160   1.344       .  A
C139        C759   1.459   1_565  S
N140        N146   1.322       .  A
N141        C167   1.361   1_565  A
N141        N143   1.321       .  A
N141       Co157   2.158       .  S
N142        C156   1.364       .  A
N143        N171   1.338       .  A
N143       Co161   2.122       .  S
H144        C167   1.081       .  S
H145        C162   1.081       .  S
N147       Co161   2.116       .  S
N148        N160   1.318       .  A
N148        N164   1.326       .  A
N148       Co157   2.075       .  S
C149        N153   1.351       .  A
C149        C163   1.450       .  S
C149        C773   1.467       .  S
C150        C169   1.458       .  S
C150        H154   1.082   1_565  S
N151        C162   1.325       .  A
N151       Co161   2.045       .  S
C155        N171   1.359       .  A
C155        C167   1.485   1_565  S
C155        C216   1.531   1_565  S
Co157      Cl168   2.469       .  S
N158        C169   1.342       .  A
C159        C311   1.539   1_556  S
Co161      Cl168   2.457       .  S
C169        C787   1.465       .  S
C172        C173   1.524       .  S
C172        C178   1.517       .  S
C172        C176   1.533       .  S
C172        C720   1.513       .  S
C173        H180   1.087       .  S
C173        C174   1.355       .  D
C174        C175   1.548       .  S
C174        C731   1.469       .  S
C175        C179   1.540       .  S
C175        C177   1.523       .  S
C175        H181   1.102       .  S
C176        H182   1.083       .  S
C176        C177   1.360       .  D
C177        C703   1.465       .  S
C178        H183   1.086       .  S
C178        C179   1.359       .  D
C179        C692   1.493       .  S
C184        C185   1.546       .  S
C184        C190   1.537       .  S
C184        C188   1.525       .  S
C184        C675   1.534       .  S
C185        H192   1.085       .  S
C185        C186   1.367       .  D
C186        C187   1.534       .  S
C186        C661   1.496       .  S
C187        C191   1.532       .  S
C187        C189   1.521       .  S
C187        H193   1.107       .  S
C188        H194   1.087       .  S
C188        C189   1.352       .  D
C189        C633   1.460       .  S
C190        H195   1.077       .  S
C190        C191   1.370       .  D
C191        C650   1.482       .  S
C196        C197   1.523       .  S
C196        C202   1.518       .  S
C196        C200   1.542       .  S
C196        C591   1.518       .  S
C197        H204   1.085       .  S
C197        C198   1.363       .  D
C198        C199   1.538       .  S
C198        C619   1.490       .  S
C199        C203   1.538       .  S
C199        C201   1.518       .  S
C199        H205   1.105       .  S
C200        H206   1.079       .  S
C200        C201   1.363       .  D
C201        C608   1.466       .  S
C202        H207   1.088       .  S
C202        C203   1.348       .  D
C203        C577   1.450       .  S
C208        N226   1.366       .  A
C208        C245   1.480       .  S
N209        N226   1.342       .  A
N209        N231   1.320       .  A
N209       Co246   2.150       .  S
C210        N235   1.364   1_565  A
C210        C248   1.488       .  S
C210        H255   1.082       .  S
H211        C252   1.082   1_565  S
C212        N236   1.358       .  A
C212        C216   1.477       .  S
C212        H241   1.081       .  S
Co213       N231   2.140       .  S
Co213       N221   2.059       .  S
Co213       N253   2.034       .  S
Co213       N229   2.144       .  S
Co213      Cl257   2.459       .  S
N214        C252   1.339       .  A
N214        N221   1.320       .  A
N214       Co215   2.086       .  S
Co215       N218   2.152       .  S
Co215       N235   2.161       .  S
Co215       N222   2.080       .  S
Co215      Cl257   2.479       .  S
C216        N254   1.365       .  A
N217        N224   1.324       .  A
N217        N247   1.320       .  A
N217       Co250   2.078       .  S
N218        N236   1.324       .  A
N218        N254   1.340       .  A
N219        C248   1.363   1_645  A
N219        N229   1.341   1_655  A
H220        C245   1.082   1_655  S
N221        N242   1.315       .  A
N222        N240   1.323       .  A
N222        N227   1.322   1_545  A
C223        N227   1.349   1_545  A
C223        C251   1.456       .  S
C223        C664   1.477   1_545  S
N224        C239   1.328       .  A
N224       Co246   2.046       .  S
C225        N253   1.328   1_655  A
C225        C228   1.446   1_655  S
C225        H259   1.082       .  S
C228        N249   1.349       .  A
C228        C605   1.452   1_455  S
N229        N235   1.322       .  A
N230        C256   1.356       .  A
N230        N232   1.322       .  A
N230       Co246   2.130       .  S
N231        C245   1.358       .  A
N232        N260   1.340       .  A
N232       Co250   2.147       .  S
H233        C256   1.082       .  S
H234        C251   1.082       .  S
N236       Co250   2.144       .  S
N237        N249   1.315       .  A
N237        N253   1.318       .  A
N237       Co246   2.069       .  S
C238        N242   1.344       .  A
C238        C252   1.465       .  S
C238        C930   1.474   1_445  S
C239        C258   1.441       .  S
C239        H243   1.082       .  S
N240        C251   1.331       .  A
N240       Co250   2.075       .  S
C244        N260   1.365       .  A
C244        C256   1.474       .  S
C244        C391   1.529       .  S
Co246      Cl257   2.462       .  S
N247        C258   1.346       .  A
Co250      Cl257   2.460       .  S
C258        C689   1.447       .  S
C261        N279   1.346       .  A
C261        C298   1.468       .  S
C261        C958   1.483   1_454  S
N262        N279   1.314       .  A
N262        N284   1.320       .  A
N262       Co299   2.065       .  S
C263        N288   1.327       .  A
C263        C301   1.454       .  S
C263        H308   1.080       .  S
H264        C305   1.081       .  S
C265        N289   1.327       .  A
C265        C269   1.460       .  S
C265        H294   1.077       .  S
Co266       N284   2.071       .  S
Co266       N274   2.154       .  S
Co266       N306   2.142       .  S
Co266       N282   2.069       .  S
Co266      Cl310   2.472       .  S
N267        C305   1.355       .  A
N267        N274   1.322       .  A
N267       Co268   2.127       .  S
Co268       N271   2.080       .  S
Co268       N288   2.050       .  S
Co268       N275   2.141       .  S
Co268      Cl310   2.461       .  S
C269        N307   1.354       .  A
C269        C636   1.482       .  S
N270        N277   1.322       .  A
N270        N300   1.341       .  A
N270       Co303   2.145       .  S
N271        N289   1.318       .  A
N271        N307   1.322       .  A
N272        C301   1.349       .  A
N272        N282   1.316       .  A
H273        C298   1.079   1_655  S
N274        N295   1.341   1_455  A
N275        N293   1.320       .  A
N275        N280   1.340       .  A
C276        N280   1.363       .  A
C276        C304   1.483       .  S
C276        C427   1.535       .  S
N277        C292   1.360   1_554  A
N277       Co299   2.154       .  S
C278        N306   1.361   1_655  A
C278        C281   1.481   1_655  S
C278        H312   1.082       .  S
C281        N302   1.367   1_554  A
N282        N288   1.319       .  A
N283        C309   1.326       .  A
N283        N285   1.322       .  A
N283       Co299   2.044       .  S
N284        C298   1.333       .  A
N285        N313   1.318       .  A
N285       Co303   2.069       .  S
H286        C309   1.082   1_556  S
H287        C304   1.082       .  S
N289       Co303   2.056       .  S
N290        N302   1.342   1_554  A
N290        N306   1.321       .  A
N290       Co299   2.157       .  S
C291        N295   1.366   1_455  A
C291        C305   1.473       .  S
C292        C311   1.483   1_556  S
C292        H296   1.081       .  S
N293        C304   1.361       .  A
N293       Co303   2.150       .  S
C297        N313   1.345       .  A
C297        C309   1.440       .  S
C297        C706   1.439   1_554  S
Co299      Cl310   2.455       .  S
N300        C311   1.364       .  A
C301        C594   1.468       .  S
Co303      Cl310   2.473       .  S
C314        N332   1.363       .  A
C314        C351   1.482   1_545  S
N315        N332   1.340       .  A
N315        N337   1.322       .  A
N315       Co352   2.136       .  S
C316        N341   1.362   1_556  A
C316        C354   1.483   1_556  S
C316        H361   1.082       .  S
H317        C358   1.082   1_556  S
C318        N342   1.360       .  A
C318        C322   1.479       .  S
C318        H347   1.082       .  S
Co319       N337   2.151       .  S
Co319       N327   2.090       .  S
Co319       N359   2.079       .  S
Co319       N335   2.149       .  S
Co319      Cl363   2.483       .  S
N320        C358   1.326       .  A
N320        N327   1.323       .  A
N320       Co321   2.051       .  S
Co321       N324   2.174       .  S
Co321       N341   2.162       .  S
Co321       N328   2.036       .  S
Co321      Cl363   2.455       .  S
C322        N360   1.373   1_554  A
N323        N330   1.323       .  A
N323        N353   1.314       .  A
N323       Co356   2.050       .  S
N324        N342   1.320       .  A
N324        N360   1.347   1_554  A
N325        C354   1.368   1_565  A
N325        N335   1.344   1_565  A
H326        C351   1.082       .  S
N327        N348   1.321       .  A
N328        N346   1.321       .  A
N328        N333   1.311       .  A
C329        N333   1.337       .  A
C329        C357   1.453       .  S
C329        C717   1.443   1_554  S
N330        C345   1.331       .  A
N330       Co352   2.064       .  S
C331        N359   1.337       .  A
C331        C334   1.458       .  S
C331        H365   1.082   1_545  S
C334        N355   1.342       .  A
C334        C647   1.461   1_545  S
N335        N341   1.322       .  A
N336        C362   1.355       .  A
N336        N338   1.321       .  A
N336       Co352   2.127       .  S
N337        C351   1.359   1_545  A
N338        N366   1.338       .  A
N338       Co356   2.134       .  S
H339        C362   1.082       .  S
H340        C357   1.082       .  S
N342       Co356   2.141       .  S
N343        N355   1.316       .  A
N343        N359   1.323       .  A
N343       Co352   2.065       .  S
C344        N348   1.350       .  A
C344        C358   1.449       .  S
C344        C916   1.461   1_544  S
C345        C364   1.449       .  S
C345        H349   1.082       .  S
N346        C357   1.332       .  A
N346       Co356   2.064       .  S
C350        N366   1.362       .  A
C350        C362   1.473       .  S
C350        C431   1.521       .  S
Co352      Cl363   2.452       .  S
N353        C364   1.341       .  A
Co356      Cl363   2.474       .  S
C364        C580   1.443       .  S
C367        C368   1.535       .  S
C367        C373   1.539       .  S
C367        C371   1.524       .  S
C367        C563   1.534       .  S
C368        H375   1.084       .  S
C368        C369   1.365       .  D
C369        C370   1.522       .  S
C369        C776   1.464       .  S
C370        C374   1.522       .  S
C370        C372   1.526       .  S
C370        H376   1.109       .  S
C371        H377   1.087       .  S
C371        C372   1.364       .  D
C372        C832   1.475       .  S
C373        H378   1.085       .  S
C373        C374   1.363       .  D
C374        C857   1.470       .  S
C379        C380   1.532       .  S
C379        C385   1.540       .  S
C379        C383   1.525       .  S
C379        C748   1.532       .  S
C380        H387   1.086       .  S
C380        C381   1.365       .  D
C381        C382   1.527       .  S
C381        C549   1.478       .  S
C382        C386   1.535       .  S
C382        C384   1.537       .  S
C382        H388   1.105       .  S
C383        H389   1.076       .  S
C383        C384   1.350       .  D
C384        C888   1.460       .  S
C385        H390   1.085       .  S
C385        C386   1.372       .  D
C386        C846   1.500       .  S
C391        N409   1.365       .  A
C391        C428   1.474       .  S
N392        N409   1.340       .  A
N392        N414   1.321       .  A
N392       Co429   2.150       .  S
C393        N418   1.358       .  A
C393        C431   1.478       .  S
C393        H438   1.082       .  S
H394        C435   1.081       .  S
C395        N419   1.359       .  A
C395        C399   1.483       .  S
C395        H424   1.082       .  S
Co396       N414   2.130       .  S
Co396       N404   2.071       .  S
Co396       N436   2.061       .  S
Co396       N412   2.122       .  S
Co396      Cl440   2.467       .  S
N397        C435   1.327       .  A
N397        N404   1.319       .  A
N397       Co398   2.054       .  S
Co398       N401   2.107       .  S
Co398       N418   2.134       .  S
Co398       N405   2.060       .  S
Co398      Cl440   2.452       .  S
C399        N437   1.352       .  A
C399        C459   1.517       .  S
N400        N407   1.324       .  A
N400        N430   1.324       .  A
N400       Co433   2.099       .  S
N401        N419   1.321       .  A
N401        N437   1.333       .  A
N402        C431   1.359       .  A
N402        N412   1.336       .  A
H403        C428   1.082       .  S
N404        N425   1.322       .  A
N405        N423   1.323       .  A
N405        N410   1.316       .  A
C406        N410   1.344       .  A
C406        C434   1.452       .  S
C406        C566   1.459       .  S
N407        C422   1.330       .  A
N407       Co429   2.057       .  S
C408        N436   1.329       .  A
C408        C411   1.453       .  S
C408        H442   1.080       .  S
C411        N432   1.355       .  A
C411        C524   1.479       .  S
N412        N418   1.319       .  A
N413        C439   1.363       .  A
N413        N415   1.324       .  A
N413       Co429   2.167       .  S
N414        C428   1.356       .  A
N415        N443   1.338       .  A
N415       Co433   2.130       .  S
H416        C439   1.081       .  S
H417        C434   1.082       .  S
N419       Co433   2.146       .  S
N420        N432   1.322       .  A
N420        N436   1.321       .  A
N420       Co429   2.091       .  S
C421        N425   1.349       .  A
C421        C435   1.446       .  S
C421        C535   1.451       .  S
C422        C441   1.443       .  S
C422        H426   1.082       .  S
N423        C434   1.335       .  A
N423       Co433   2.076       .  S
C427        N443   1.359       .  A
C427        C439   1.488       .  S
Co429      Cl440   2.470       .  S
N430        C441   1.352       .  A
Co433      Cl440   2.469       .  S
C441        C552   1.459       .  S
C444        N462   1.344       .  A
C444        C481   1.454       .  S
C444        C944   1.453       .  S
N445        N462   1.318       .  A
N445        N467   1.324       .  A
N445       Co482   2.068       .  S
C446        N471   1.330       .  A
C446        C484   1.449       .  S
C446        H491   1.079       .  S
H447        C488   1.082       .  S
C448        N472   1.334       .  A
C448        C452   1.454       .  S
C448        H477   1.082       .  S
Co449       N467   2.074       .  S
Co449       N457   2.135       .  S
Co449       N489   2.141       .  S
Co449       N465   2.086       .  S
Co449      Cl493   2.478       .  S
N450        C488   1.354       .  A
N450        N457   1.321       .  A
N450       Co451   2.119       .  S
Co451       N454   2.072       .  S
Co451       N471   2.062       .  S
Co451       N458   2.110       .  S
Co451      Cl493   2.454       .  S
C452        N490   1.346       .  A
C452        C734   1.461       .  S
N453        N460   1.323       .  A
N453        N483   1.340       .  A
N453       Co486   2.138       .  S
N454        N472   1.321       .  A
N454        N490   1.320       .  A
N455        C484   1.353       .  A
N455        N465   1.323       .  A
H456        C481   1.082       .  S
N457        N478   1.337       .  A
N458        N476   1.321       .  A
N458        N463   1.334       .  A
C459        N463   1.354       .  A
C459        C487   1.481       .  S
N460        C475   1.361       .  A
N460       Co482   2.157       .  S
C461        N489   1.359       .  A
C461        C464   1.479       .  S
C461        H495   1.082       .  S
C464        N485   1.364       .  A
N465        N471   1.321       .  A
N466        C492   1.328       .  A
N466        N468   1.321       .  A
N466       Co482   2.062       .  S
N467        C481   1.333       .  A
N468        N496   1.318       .  A
N468       Co486   2.066       .  S
H469        C492   1.082       .  S
H470        C487   1.082       .  S
N472       Co486   2.069       .  S
N473        N485   1.340       .  A
N473        N489   1.322       .  A
N473       Co482   2.146       .  S
C474        N478   1.361       .  A
C474        C488   1.472       .  S
C475        C494   1.482       .  S
C475        H479   1.082       .  S
N476        C487   1.358       .  A
N476       Co486   2.146       .  S
C480        N496   1.346       .  A
C480        C492   1.459       .  S
C480        C622   1.470       .  S
Co482      Cl493   2.454       .  S
N483        C494   1.364       .  A
C484        C678   1.474       .  S
Co486      Cl493   2.472       .  S
C497        C498   1.541       .  S
C497        C503   1.545       .  S
C497        C501   1.511       .  S
C497        C538   1.523       .  S
C498        H505   1.085       .  S
C498        C499   1.370       .  D
C499        C500   1.527       .  S
C499        C790   1.495       .  S
C500        C504   1.521       .  S
C500        C502   1.535       .  S
C500        H506   1.098       .  S
C501        H507   1.087       .  S
C501        C502   1.352       .  D
C502        C801   1.452       .  S
C503        H508   1.080       .  S
C503        C504   1.364       .  D
C504        C902   1.488       .  S
C509        C510   1.538       .  S
C509        C515   1.519       .  S
C509        C513   1.537       .  S
C509        C874   1.529       .  S
C510        H517   1.086       .  S
C510        C511   1.367       .  D
C511        C512   1.532       .  S
C511        C818   1.474       .  S
C512        C516   1.534       .  S
C512        C514   1.534       .  S
C512        H518   1.109       .  S
C513        H519   1.079       .  S
C513        C514   1.361       .  D
C514        C762   1.486       .  S
C515        H520   1.087       .  S
C515        C516   1.362       .  D
C516        C521   1.473       .  S
C521        C522   1.408       .  A
C521        C526   1.407       .  A
C522        C523   1.398       .  A
C522        C527   1.455       .  S
C523        C524   1.421       .  A
C523        C530   1.452       .  S
C524        C525   1.414       .  A
C525        C526   1.408       .  A
C525        C528   1.452       .  S
C526        C529   1.448       .  S
C527        N534   1.157       .  T
C528        N533   1.157       .  T
C529        N531   1.157       .  T
C530        N532   1.158       .  T
C535        C536   1.404       .  A
C535        C540   1.407       .  A
C536        C537   1.404       .  A
C536        C541   1.452       .  S
C537        C538   1.421       .  A
C537        C544   1.452       .  S
C538        C539   1.414       .  A
C539        C540   1.393       .  A
C539        C542   1.452       .  S
C540        C543   1.454       .  S
C541        N548   1.157       .  T
C542        N547   1.158       .  T
C543        N545   1.158       .  T
C544        N546   1.157       .  T
C549        C550   1.405       .  A
C549        C554   1.407       .  A
C550        C551   1.404       .  A
C550        C555   1.447       .  S
C551        C552   1.413       .  A
C551        C558   1.452       .  S
C552        C553   1.405       .  A
C553        C554   1.401       .  A
C553        C556   1.450       .  S
C554        C557   1.447       .  S
C555        N562   1.158       .  T
C556        N561   1.157       .  T
C557        N559   1.157       .  T
C558        N560   1.157       .  T
C563        C564   1.428       .  A
C563        C568   1.427       .  A
C564        C565   1.404       .  A
C564        C569   1.449       .  S
C565        C566   1.400       .  A
C565        C572   1.455       .  S
C566        C567   1.405       .  A
C567        C568   1.401       .  A
C567        C570   1.456       .  S
C568        C571   1.452       .  S
C569        N576   1.157       .  T
C570        N575   1.158       .  T
C571        N573   1.157       .  T
C572        N574   1.157       .  T
C577        C578   1.410       .  A
C577        C582   1.406       .  A
C578        C579   1.396       .  A
C578        C583   1.453       .  S
C579        C580   1.403       .  A
C579        C586   1.453       .  S
C580        C581   1.411       .  A
C581        C582   1.396       .  A
C581        C584   1.454       .  S
C582        C585   1.453       .  S
C583        N590   1.157       .  T
C584        N589   1.158       .  T
C585        N587   1.157       .  T
C586        N588   1.157       .  T
C591        C592   1.423       .  A
C591        C596   1.411       .  A
C592        C593   1.396       .  A
C592        C597   1.457       .  S
C593        C594   1.415   1_655  A
C593        C600   1.455       .  S
C594        C595   1.413       .  A
C595        C596   1.397   1_455  A
C595        C598   1.452       .  S
C596        C599   1.450   1_655  S
C597        N604   1.157       .  T
C598        N603   1.157       .  T
C599        N601   1.158       .  T
C600        N602   1.158       .  T
C605        C606   1.408       .  A
C605        C610   1.406       .  A
C606        C607   1.390       .  A
C606        C611   1.457       .  S
C607        C608   1.407       .  A
C607        C614   1.444       .  S
C608        C609   1.410       .  A
C609        C610   1.403       .  A
C609        C612   1.445       .  S
C610        C613   1.452       .  S
C611        N618   1.158   1_655  T
C612        N617   1.157       .  T
C613        N615   1.157       .  T
C614        N616   1.154       .  T
C619        C620   1.420       .  A
C619        C624   1.424       .  A
C620        C621   1.407       .  A
C620        C625   1.448       .  S
C621        C622   1.407       .  A
C621        C628   1.453       .  S
C622        C623   1.408       .  A
C623        C624   1.394       .  A
C623        C626   1.456       .  S
C624        C627   1.453       .  S
C625        N632   1.158       .  T
C626        N631   1.158       .  T
C627        N629   1.158       .  T
C628        N630   1.157       .  T
C633        C634   1.406       .  A
C633        C638   1.406       .  A
C634        C635   1.396       .  A
C634        C639   1.453       .  S
C635        C636   1.412       .  A
C635        C642   1.449       .  S
C636        C637   1.415       .  A
C637        C638   1.404       .  A
C637        C640   1.450       .  S
C638        C641   1.449       .  S
C639        N646   1.157       .  T
C640        N645   1.157       .  T
C641        N643   1.156       .  T
C642        N644   1.158       .  T
C647        C648   1.405       .  A
C647        C652   1.412       .  A
C648        C649   1.404       .  A
C648        C653   1.453       .  S
C649        C650   1.416       .  A
C649        C656   1.448       .  S
C650        C651   1.413       .  A
C651        C652   1.399       .  A
C651        C654   1.454       .  S
C652        C655   1.453   1_565  S
C653        N660   1.157   1_565  T
C654        N659   1.157       .  T
C655        N657   1.158       .  T
C656        N658   1.157       .  T
C661        C662   1.418       .  A
C661        C666   1.421       .  A
C662        C663   1.401       .  A
C662        C667   1.450       .  S
C663        C664   1.407       .  A
C663        C670   1.454   1_565  S
C664        C665   1.413       .  A
C665        C666   1.409       .  A
C665        C668   1.453       .  S
C666        C669   1.450       .  S
C667        N674   1.157   1_565  T
C668        N673   1.157       .  T
C669        N671   1.157       .  T
C670        N672   1.157       .  T
C675        C676   1.420       .  A
C675        C680   1.418       .  A
C676        C677   1.401       .  A
C676        C681   1.455       .  S
C677        C678   1.414       .  A
C677        C684   1.452       .  S
C678        C679   1.409       .  A
C679        C680   1.408       .  A
C679        C682   1.453       .  S
C680        C683   1.448       .  S
C681        N688   1.158       .  T
C682        N687   1.157       .  T
C683        N685   1.158       .  T
C684        N686   1.158       .  T
C689        C690   1.396       .  A
C689        C694   1.404       .  A
C690        C691   1.396       .  A
C690        C695   1.456       .  S
C691        C692   1.430       .  A
C691        C698   1.454       .  S
C692        C693   1.420       .  A
C693        C694   1.403       .  A
C693        C696   1.449       .  S
C694        C697   1.454       .  S
C695        N702   1.157       .  T
C696        N701   1.158       .  T
C697        N699   1.157       .  T
C698        N700   1.158       .  T
C703        C704   1.409       .  A
C703        C708   1.412       .  A
C704        C705   1.398       .  A
C704        C709   1.448       .  S
C705        C706   1.407       .  A
C705        C712   1.454       .  S
C706        C707   1.399       .  A
C707        C708   1.394       .  A
C707        C710   1.454   1_556  S
C708        C711   1.446       .  S
C709        N716   1.157       .  T
C710        N715   1.157       .  T
C711        N713   1.155       .  T
C712        N714   1.158       .  T
C717        C718   1.408       .  A
C717        C722   1.400   1_556  A
C718        C719   1.391       .  A
C718        C723   1.455       .  S
C719        C720   1.421       .  A
C719        C726   1.457       .  S
C720        C721   1.424       .  A
C721        C722   1.397   1_556  A
C721        C724   1.449       .  S
C722        C725   1.455       .  S
C723        N730   1.158       .  T
C724        N729   1.157   1_556  T
C725        N727   1.157       .  T
C726        N728   1.158       .  T
C731        C732   1.414       .  A
C731        C736   1.409       .  A
C732        C733   1.404       .  A
C732        C737   1.452       .  S
C733        C734   1.406       .  A
C733        C740   1.452       .  S
C734        C735   1.411       .  A
C735        C736   1.402       .  A
C735        C738   1.453       .  S
C736        C739   1.452       .  S
C737        N744   1.157       .  T
C738        N743   1.158       .  T
C739        N741   1.158       .  T
C740        N742   1.157       .  T
C745        C746   1.412       .  A
C745        C750   1.415       .  A
C746        C747   1.399       .  A
C746        C751   1.453       .  S
C747        C748   1.416       .  A
C747        C754   1.449       .  S
C748        C749   1.417       .  A
C749        C750   1.401       .  A
C749        C752   1.448       .  S
C750        C753   1.455       .  S
C751        N758   1.158       .  T
C752        N757   1.156       .  T
C753        N755   1.158       .  T
C754        N756   1.158       .  T
C759        C760   1.408   1_556  A
C759        C764   1.403   1_545  A
C760        C761   1.403       .  A
C760        C765   1.455       .  S
C761        C762   1.416       .  A
C761        C768   1.449       .  S
C762        C763   1.422       .  A
C763        C764   1.403   1_544  A
C763        C766   1.454       .  S
C764        C767   1.452       .  S
C765        N772   1.157   1_554  T
C766        N771   1.157   1_545  T
C767        N769   1.157       .  T
C768        N770   1.157       .  T
C773        C774   1.413   1_556  A
C773        C778   1.417       .  A
C774        C775   1.404       .  A
C774        C779   1.452       .  S
C775        C776   1.407       .  A
C775        C782   1.448       .  S
C776        C777   1.403       .  A
C777        C778   1.393   1_554  A
C777        C780   1.453   1_554  S
C778        C781   1.452       .  S
C779        N786   1.157       .  T
C780        N785   1.157       .  T
C781        N783   1.158       .  T
C782        N784   1.157       .  T
C787        C788   1.410   1_565  A
C787        C792   1.402   1_565  A
C788        C789   1.401       .  A
C788        C793   1.455   1_545  S
C789        C790   1.421       .  A
C789        C796   1.453       .  S
C790        C791   1.424       .  A
C791        C792   1.404       .  A
C791        C794   1.448       .  S
C792        C795   1.454       .  S
C793        N800   1.158       .  T
C794        N799   1.158       .  T
C795        N797   1.157   1_545  T
C796        N798   1.157       .  T
C801        C802   1.406       .  A
C801        C806   1.400       .  A
C802        C803   1.400       .  A
C802        C807   1.455       .  S
C803        C804   1.419       .  A
C803        C810   1.452       .  S
C804        C805   1.413       .  A
C805        C806   1.394       .  A
C805        C808   1.451       .  S
C806        C809   1.452       .  S
C807        N814   1.157       .  T
C808        N813   1.158       .  T
C809        N811   1.158       .  T
C810        N812   1.157       .  T
C815        C816   1.408       .  A
C815        C820   1.415   1_556  A
C816        C817   1.404   1_556  A
C816        C821   1.454       .  S
C817        C818   1.413       .  A
C817        C824   1.447   1_554  S
C818        C819   1.409       .  A
C819        C820   1.400       .  A
C819        C822   1.450       .  S
C820        C823   1.455   1_455  S
C821        N828   1.158       .  T
C822        N827   1.156       .  T
C823        N825   1.158       .  T
C824        N826   1.156       .  T
C829        C830   1.405       .  A
C829        C834   1.411   1_556  A
C830        C831   1.405   1_556  A
C830        C835   1.453       .  S
C831        C832   1.417       .  A
C831        C838   1.448   1_554  S
C832        C833   1.412       .  A
C833        C834   1.392       .  A
C833        C836   1.452       .  S
C834        C837   1.455       .  S
C835        N842   1.157       .  T
C836        N841   1.156       .  T
C837        N839   1.158       .  T
C838        N840   1.157       .  T
C843        C844   1.415   1_655  A
C843        C848   1.410       .  A
C844        C845   1.406       .  A
C844        C849   1.453       .  S
C845        C846   1.420       .  A
C845        C852   1.453       .  S
C846        C847   1.423       .  A
C847        C848   1.407   1_455  A
C847        C850   1.449   1_455  S
C848        C851   1.453       .  S
C849        N856   1.157       .  T
C850        N855   1.158       .  T
C851        N853   1.158       .  T
C852        N854   1.157       .  T
C857        C858   1.409       .  A
C857        C862   1.410       .  A
C858        C859   1.400       .  A
C858        C863   1.455       .  S
C859        C860   1.419       .  A
C859        C866   1.453       .  S
C860        C861   1.411       .  A
C861        C862   1.403       .  A
C861        C864   1.453       .  S
C862        C865   1.450       .  S
C863        N870   1.157       .  T
C864        N869   1.158       .  T
C865        N867   1.157       .  T
C866        N868   1.158       .  T
C871        C872   1.417   1_545  A
C871        C876   1.420       .  A
C872        C873   1.400   1_565  A
C872        C877   1.453       .  S
C873        C874   1.415       .  A
C873        C880   1.453   1_545  S
C874        C875   1.412       .  A
C875        C876   1.405       .  A
C875        C878   1.449       .  S
C876        C879   1.452   1_455  S
C877        N884   1.157       .  T
C878        N883   1.156       .  T
C879        N881   1.158       .  T
C880        N882   1.157       .  T
C885        C886   1.410   1_655  A
C885        C890   1.400       .  A
C886        C887   1.398       .  A
C886        C891   1.454       .  S
C887        C888   1.407       .  A
C887        C894   1.452       .  S
C888        C889   1.416       .  A
C889        C890   1.397   1_455  A
C889        C892   1.453       .  S
C890        C893   1.453       .  S
C891        N898   1.158       .  T
C892        N897   1.157       .  T
C893        N895   1.157       .  T
C894        N896   1.158       .  T
C899        C900   1.410       .  A
C899        C904   1.404   1_565  A
C900        C901   1.399   1_565  A
C900        C905   1.455       .  S
C901        C902   1.419       .  A
C901        C908   1.452       .  S
C902        C903   1.422       .  A
C903        C904   1.403       .  A
C903        C906   1.449       .  S
C904        C907   1.456       .  S
C905        N912   1.158       .  T
C906        N911   1.157       .  T
C907        N909   1.158   1_545  T
C908        N910   1.157       .  T
C913        C914   1.423       .  A
C913        C918   1.429       .  A
C914        C915   1.397       .  A
C914        C919   1.454       .  S
C915        C916   1.408       .  A
C915        C922   1.456   1_565  S
C916        C917   1.399   1_556  A
C917        C918   1.407   1_554  A
C917        C920   1.455       .  S
C918        C921   1.447       .  S
C919        N926   1.157       .  T
C920        N925   1.157       .  T
C921        N923   1.158       .  T
C922        N924   1.157       .  T
C927        C928   1.412       .  A
C927        C932   1.416       .  A
C928        C929   1.398       .  A
C928        C933   1.452       .  S
C929        C930   1.417       .  A
C929        C936   1.455   1_565  S
C930        C931   1.409   1_655  A
C931        C932   1.409   1_455  A
C931        C934   1.453       .  S
C932        C935   1.448   1_655  S
C933        N940   1.156       .  T
C934        N939   1.157       .  T
C935        N937   1.157       .  T
C936        N938   1.158       .  T
C941        C942   1.435       .  A
C941        C946   1.430       .  A
C942        C943   1.402       .  A
C942        C947   1.455       .  S
C943        C944   1.395       .  A
C943        C950   1.454       .  S
C944        C945   1.402       .  A
C945        C946   1.403       .  A
C945        C948   1.458       .  S
C946        C949   1.448       .  S
C947        N954   1.157       .  T
C948        N953   1.158       .  T
C949        N951   1.158       .  T
C950        N952   1.157       .  T
C955        C956   1.401       .  A
C955        C960   1.402       .  A
C956        C957   1.399   1_556  A
C956        C961   1.453       .  S
C957        C958   1.418   1_554  A
C957        C964   1.450       .  S
C958        C959   1.427   1_655  A
C959        C960   1.400   1_455  A
C959        C962   1.453       .  S
C960        C963   1.456       .  S
C961        N968   1.158       .  T
C962        N967   1.158       .  T
C963        N965   1.157       .  T
C964        N966   1.158       .  T
