geometry optimzed in LAMMPS
_audit_creation_date              2020-11-30 
_audit_creation_method            'lammps2cif' 
_symmetry_space_group_name_H-M    'P1' 
_symmetry_Int_Tables_number       1 
_symmetry_cell_setting            triclinic 
loop_ 
_symmetry_equiv_pos_as_xyz 
  x,y,z 
_cell_length_a                    33.3209456 
_cell_length_b                    32.365079634623406 
_cell_length_c                    67.1922477392213 
_cell_angle_alpha                 89.52989143189536 
_cell_angle_beta                  90.0277110105154 
_cell_angle_gamma                 121.46706921589505 
loop_ 
_atom_site_label 
_atom_site_type_symbol 
_atom_site_fract_x 
_atom_site_fract_y 
_atom_site_fract_z 
_atom_site_charge 
C1          C  0.30802929  0.30599173  0.12156872     0.03800
C2          C  0.30131349  0.33919480  0.13221160    -0.12400
C3          C  0.33434452  0.36928177  0.14655920     0.01300
C4          C  0.37364557  0.36512174  0.15022177    -0.10900
C5          C  0.37994788  0.33159236  0.13990797     0.03800
C6          C  0.34734799  0.30224958  0.12557684    -0.10300
H7          H  0.27086394  0.34190836  0.12912120     0.09400
H8          H  0.39978891  0.38810389  0.16104673     0.06900
H9          H  0.35252493  0.27640476  0.11758825     0.06700
C10         C  0.68584934  0.35978449  0.22998354     0.46100
H11         H  0.68832222  0.36501231  0.24635767    -0.02900
C12         C  0.68102832  0.34788089  0.19157270     0.46200
H13         H  0.67843872  0.34275947  0.17518559    -0.02900
C14         C  0.72492346  0.40344985  0.21828122    -0.16600
C15         C  0.68998471  0.31686013  0.22335076    -0.16400
C16         C  0.63960151  0.35076967  0.22105444    -0.16700
C17         C  0.72203686  0.39719671  0.19800288    -0.16700
C18         C  0.68737529  0.31046711  0.20306516    -0.16300
C19         C  0.63727634  0.34446266  0.20081525    -0.16600
C20         C  0.34288779  0.68231781  0.23800185     0.46100
H21         H  0.34460265  0.68712941  0.25440044    -0.02900
C22         C  0.33852811  0.67114708  0.19952483     0.46200
H23         H  0.33697881  0.66656991  0.18312054    -0.02900
C24         C  0.33358139  0.63278912  0.23150045    -0.16600
C25         C  0.30398210  0.68716980  0.22815837    -0.16400
C26         C  0.38805082  0.71959595  0.22707621    -0.16700
C27         C  0.33182627  0.62686840  0.21119292    -0.16700
C28         C  0.30126319  0.68061977  0.20789543    -0.16300
C29         C  0.38574817  0.71355194  0.20681560    -0.16600
C30         C  0.03138994  0.70604894  0.10578392     0.03800
C31         C  0.06974286  0.70489449  0.11400380    -0.12400
C32         C  0.06189767  0.66763203  0.12742743     0.01300
C33         C  0.01554409  0.62998051  0.13135295    -0.10900
C34         C  0.97734566  0.63111060  0.12349862     0.03800
C35         C  0.98526985  0.66940544  0.11100245    -0.10300
H36         H  0.10527603  0.73421024  0.11080118     0.09400
H37         H  0.00873092  0.60031364  0.14119165     0.06900
H38         H  0.95532014  0.66992447  0.10504952     0.06700
C39         C  0.70457229  0.01100618  0.11410671     0.03800
C40         C  0.66924882  0.96432975  0.12041012    -0.12400
C41         C  0.63525466  0.95860456  0.13417514     0.01300
C42         C  0.63728940  0.99925023  0.14220256    -0.10900
C43         C  0.67354757  0.04616119  0.13694126     0.03800
C44         C  0.70660509  0.05184531  0.12246431    -0.10300
H45         H  0.66709518  0.93250024  0.11413777     0.09400
H46         H  0.61038414  0.99384847  0.15275972     0.06900
H47         H  0.73482845  0.08776749  0.11820810     0.06700
C48         C  0.01624130  0.73514421  0.30569403     0.03800
C49         C  0.06162583  0.74487784  0.30113907    -0.12400
C50         C  0.06746141  0.71527821  0.28788047     0.01300
C51         C  0.02821149  0.67666722  0.27880245    -0.10900
C52         C  0.98269293  0.66700610  0.28273661     0.03800
C53         C  0.97695953  0.69609071  0.29648201    -0.10300
H54         H  0.09223143  0.77461406  0.30820056     0.09400
H55         H  0.03360464  0.65405524  0.26872825     0.06900
H56         H  0.94223049  0.68954367  0.29957312     0.06700
C57         C  0.70892550  0.01939746  0.31454907     0.03800
C58         C  0.66854725  0.97947235  0.30641395    -0.12400
C59         C  0.64087532  0.98638236  0.29258684     0.01300
C60         C  0.65289142  0.03381460  0.28776762    -0.10900
C61         C  0.69312788  0.07371216  0.29573519     0.03800
C62         C  0.72166893  0.06654924  0.30880433    -0.10300
H63         H  0.65985871  0.94322173  0.31038219     0.09400
H64         H  0.63144070  0.04008371  0.27753914     0.06900
H65         H  0.75280238  0.09760939  0.31494365     0.06700
C66         C  0.33523373  0.32094130  0.31901303     0.03800
C67         C  0.37483784  0.32313654  0.31031875    -0.12400
C68         C  0.40226210  0.35916661  0.29597722     0.01300
C69         C  0.39135726  0.39474106  0.29164446    -0.10900
C70         C  0.35206905  0.39278740  0.30011248     0.03800
C71         C  0.32328062  0.35510916  0.31334531    -0.10300
H72         H  0.38275108  0.29557605  0.31409774     0.09400
H73         H  0.41296743  0.42393030  0.28131423     0.06900
H74         H  0.29270787  0.35351908  0.31982161     0.06700
Zr75       Zr  0.99967483  0.00668538  0.50417273     2.17500
O76         O  0.99010084  0.96944977  0.53699457    -0.50700
O77         O  0.99360178  0.06552380  0.52444690    -0.73900
O78         O  0.07278302  0.02653594  0.52003385    -0.80700
O79         O  0.86790786  0.92323920  0.49399171    -0.82400
O80         O  0.13424522  0.06321574  0.49836395    -0.78000
O81         O  0.92563018  0.93893893  0.51615432    -0.89700
O82         O  0.01430578  0.13152143  0.50511518    -0.75600
O83         O  0.05662738  0.08043291  0.48829671    -0.85100
O84         O  0.95475205  0.03382215  0.48723555    -0.84800
O85         O  0.04425433  0.98592924  0.48254053    -0.71600
O86         O  0.95153480  0.94367186  0.48136891    -0.83700
Zr87       Zr  0.00770118  0.02581055  0.42603891     2.26400
Zr88       Zr  0.10010634  0.06047177  0.46582506     2.06300
Zr89       Zr  0.90716101  0.97128908  0.46404326     2.10000
Zr90       Zr  0.01182772  0.10718115  0.47109145     1.78800
O91         O  0.84264189  0.89161273  0.45440032    -0.92500
O92         O  0.08485568  0.18515318  0.47444272    -0.40300
O93         O  0.96310862  0.04575372  0.44770431    -0.77000
O94         O  0.05671515  0.09009677  0.44855701    -0.95600
O95         O  0.05192669  0.99775874  0.44271533    -0.88900
O96         O  0.95072231  0.95187746  0.44165406    -0.91800
C97         C  0.00321325  0.10907054  0.52183200     1.02000
C98         C  0.88249844  0.91601471  0.51064293     1.14900
C99         C  0.11652372  0.04678595  0.51570738     1.05700
O100        O  0.16909651  0.14027897  0.47170926    -0.93900
O101        O  0.14255233  0.09977937  0.43473303    -0.89700
O102        O  0.08513535  0.07925324  0.41188329    -0.82800
C103        C  0.12844388  0.10144072  0.41706089     1.12300
O104        O  0.99591499  0.86902009  0.48345931    -0.95900
Zr105      Zr  0.99494981  0.92456031  0.45899699     1.88900
O106        O  0.00353579  0.96185718  0.40557490    -0.72600
O107        O  0.14648673  0.02361687  0.45941036    -0.51800
O108        O  0.05733774  0.90802192  0.45296350    -0.96500
O109        O  0.92017211  0.84736922  0.46010762    -0.53700
O110        O  0.98482157  0.89650495  0.42503524    -0.73100
C111        C  0.99273388  0.91789739  0.40811145     0.99300
O112        O  0.00676168  0.06028597  0.39368819    -0.61900
O113        O  0.85458715  0.99882347  0.47381252    -0.56700
O114        O  0.93794147  0.01736588  0.41117787    -0.93400
O115        O  0.87537035  0.97819267  0.43224283    -0.91800
O116        O  0.94884188  0.12398103  0.47399713    -0.92200
O117        O  0.01778783  0.16500166  0.44606288    -0.91000
C118        C  0.89424824  0.99810067  0.41542375     1.18100
H119        H  0.93489078  0.03871054  0.49619427     0.34000
H120        H  0.07752275  0.12005696  0.44158705     0.44900
H121        H  0.92959682  0.92866911  0.43202052     0.38400
H122        H  0.06041641  0.97355809  0.49014161     0.34900
H123        H  0.07542638  0.20663024  0.48050145     0.26700
H124        H  0.17948197  0.04993756  0.46161777     0.32600
H125        H  0.07361625  0.92677961  0.44078933     0.38500
H126        H  0.96400961  0.15684765  0.47973094     0.33000
H127        H  0.87043779  0.03280574  0.46903192     0.31900
H128        H  0.81402028  0.88986414  0.45963910     0.33600
H129        H  0.90225823  0.84823989  0.44852235     0.32500
H130        H  0.00419082  0.14548688  0.43391092     0.36500
H131        H  0.02676427  0.09589596  0.39505497     0.29300
H132        H  0.00899379  0.99627938  0.54632249     0.33500
H133        H  0.98857224  0.83969620  0.47593776     0.36300
H134        H  0.82688840  0.98108409  0.46505009     0.28900
H135        H  0.02395003  0.05127575  0.38438597     0.41800
H136        H  0.19623977  0.13603579  0.46992819     0.31900
H137        H  0.10251791  0.18007943  0.48506215     0.39500
H138        H  0.90326366  0.84944853  0.47180625     0.31300
H139        H  0.13924582  0.00086773  0.47068378     0.31400
H140        H  0.00610835  0.95090632  0.53633929     0.31700
Zr141      Zr  0.00606694  0.02247652  0.92477685     2.17500
O142        O  0.02748611  0.05388221  0.89076584    -0.50700
O143        O  0.93977020  0.96025547  0.90561836    -0.73900
O144        O  0.05930613  0.00261562  0.90875507    -0.80700
O145        O  0.96203381  0.10960789  0.93490604    -0.82400
O146        O  0.07706286  0.95948328  0.92998394    -0.78000
O147        O  0.00014198  0.08962853  0.91249676    -0.89700
O148        O  0.88046095  0.91043259  0.92665890    -0.75600
O149        O  0.98307970  0.94808289  0.94118972    -0.85100
O150        O  0.93655553  0.00256162  0.94279494    -0.84800
O151        O  0.07211197  0.04017482  0.94558625    -0.71600
O152        O  0.02781723  0.08865079  0.94698027    -0.83700
Zr153      Zr  0.99977623  0.00884921  0.00341523     2.26400
Zr154      Zr  0.04768727  0.96499693  0.96254491     2.06300
Zr155      Zr  0.95841543  0.06729318  0.96567687     2.10000
Zr156      Zr  0.91419485  0.92854639  0.95961443     1.78800
O157        O  0.98727379  0.15069830  0.97509323    -0.92500
O158        O  0.90321244  0.84958517  0.95240788    -0.40300
O159        O  0.93444189  0.99239670  0.98270442    -0.77000
O160        O  0.97746561  0.94264406  0.98103818    -0.95600
O161        O  0.06938159  0.03001530  0.98528580    -0.88900
O162        O  0.02231183  0.08355924  0.98720474    -0.91800
C163        C  0.89760030  0.92533550  0.90920726     1.02000
C164        C  0.98101269  0.11341851  0.91782183     1.14900
C165        C  0.07913647  0.97868079  0.91289964     1.05700
O166        O  0.01712028  0.87929186  0.95724487    -0.93900
O167        O  0.05477242  0.93086088  0.99414195    -0.89700
O168        O  0.01811208  0.95110759  0.01719256    -0.82800
C169        C  0.03867391  0.92876941  0.01176582     1.12300
O170        O  0.14176342  0.15455825  0.94135809    -0.95900
Zr171      Zr  0.09105336  0.10399179  0.96858125     1.88900
O172        O  0.06183013  0.07365681  0.02329451    -0.72600
O173        O  0.13014588  0.98936481  0.96480742    -0.51800
O174        O  0.17086942  0.12016696  0.97140088    -0.96500
O175        O  0.10177789  0.18434758  0.97090004    -0.53700
O176        O  0.11923615  0.12669759  0.00218369    -0.73100
C177        C  0.10235703  0.11137098  0.01964014     0.99300
O178        O  0.97173003  0.97059123  0.03606268    -0.61900
O179        O  0.87841333  0.04776558  0.95905649    -0.56700
O180        O  0.94044179  0.02162601  0.01801561    -0.93400
O181        O  0.92101891  0.06413195  0.99722797    -0.91800
O182        O  0.83574642  0.91522486  0.96395545    -0.92200
O183        O  0.86460580  0.86918725  0.98486755    -0.91000
C184        C  0.91819561  0.04309674  0.01389676     1.18100
H185        H  0.91228654  0.99974741  0.93406198     0.34000
H186        H  0.96691569  0.91267758  0.98817054     0.44900
H187        H  0.02778675  0.10818075  0.99668951     0.38400
H188        H  0.10038743  0.05060033  0.93791941     0.34900
H189        H  0.86960828  0.82904687  0.94878484     0.26700
H190        H  0.14007088  0.00356951  0.97821721     0.32600
H191        H  0.16985322  0.09239360  0.96482608     0.38500
H192        H  0.83701203  0.94309297  0.95712208     0.33000
H193        H  0.87896829  0.07804356  0.96184625     0.31900
H194        H  0.95965789  0.15429691  0.97377457     0.33600
H195        H  0.08954751  0.18546205  0.98417968     0.32500
H196        H  0.88335570  0.88009636  0.99723945     0.36500
H197        H  0.97643715  0.99659445  0.04520636     0.29300
H198        H  0.01828425  0.02546241  0.88225151     0.33500
H199        H  0.16640148  0.18491188  0.94761977     0.36300
H200        H  0.87445327  0.04399720  0.94445118     0.28900
H201        H  0.93718212  0.94894684  0.03486731     0.41800
H202        H  0.04416664  0.87531218  0.95984919     0.31900
H203        H  0.92036453  0.85409719  0.93976775     0.39500
H204        H  0.07889065  0.18395604  0.96138648     0.31300
H205        H  0.12964248  0.95853936  0.96559244     0.31400
H206        H  0.06231107  0.07317905  0.89030469     0.31700
C207        C  0.97140096  0.29250163  0.62198231     0.03800
C208        C  0.92687452  0.28431715  0.62708139    -0.12400
C209        C  0.92317420  0.31633641  0.63974453     0.01300
C210        C  0.96368345  0.35580208  0.64778362    -0.10900
C211        C  0.00822749  0.36359219  0.64341524     0.03800
C212        C  0.01181917  0.33200364  0.63036137    -0.10300
H213        H  0.89528868  0.25429874  0.62071919     0.09400
H214        H  0.96021212  0.38042576  0.65743388     0.06900
H215        H  0.04607984  0.33750829  0.62709825     0.06700
C216        C  0.98126760  0.32241720  0.81938348     0.03800
C217        C  0.94223400  0.32387410  0.81230924    -0.12400
C218        C  0.94871853  0.36006344  0.79864105     0.01300
C219        C  0.99458572  0.39644225  0.79322803    -0.10900
C220        C  0.03343481  0.39513390  0.80018185     0.03800
C221        C  0.02668931  0.35776966  0.81292511    -0.10300
H222        H  0.90701181  0.29559131  0.81660834     0.09400
H223        H  0.00018632  0.42509494  0.78301771     0.06900
H224        H  0.05715594  0.35739572  0.81829631     0.06700
C225        C  0.65531605  0.35153853  0.69760555     0.46100
H226        H  0.65289881  0.35128096  0.68111807    -0.02900
C227        C  0.66141465  0.35159374  0.73625258     0.46200
H228        H  0.66386335  0.35211573  0.75273649    -0.02900
C229        C  0.61104186  0.31060741  0.70781091    -0.16600
C230        C  0.69460238  0.34446617  0.70521044    -0.16400
C231        C  0.66409331  0.39841137  0.70715713    -0.16700
C232        C  0.61387318  0.31130224  0.72823982    -0.16700
C233        C  0.69851029  0.34507511  0.72560844    -0.16300
C234        C  0.66787811  0.39850592  0.72750998    -0.16600
C235        C  0.32851248  0.67744464  0.73040061     0.46100
H236        H  0.33465030  0.68258453  0.74667876    -0.02900
C237        C  0.31343229  0.66441371  0.69231437     0.46200
H238        H  0.30712051  0.65921944  0.67603391    -0.02900
C239        C  0.32050279  0.71522238  0.72026708    -0.16600
C240        C  0.36923590  0.67908532  0.71885194    -0.16400
C241        C  0.28499106  0.62864069  0.72515299    -0.16700
C242        C  0.31279787  0.70849329  0.70010673    -0.16700
C243        C  0.36108913  0.67258801  0.69871306    -0.16300
C244        C  0.27670049  0.62163317  0.70507924    -0.16600
C245        C  0.30900947  0.01833784  0.61082806     0.03800
C246        C  0.35016183  0.05793779  0.61865831    -0.12400
C247        C  0.37760685  0.05060137  0.63247273     0.01300
C248        C  0.36478196  0.00299353  0.63743196    -0.10900
C249        C  0.32379341  0.96329130  0.62979666     0.03800
C250        C  0.29532316  0.97100893  0.61684464    -0.10300
H251        H  0.35950950  0.09433859  0.61456701     0.09400
H252        H  0.38631429  0.99636408  0.64745289     0.06900
H253        H  0.26357620  0.94024410  0.61094010     0.06700
C254        C  0.66349258  0.69180750  0.60402957     0.03800
C255        C  0.62373411  0.69446410  0.60876790    -0.12400
C256        C  0.59160494  0.66357093  0.62326196     0.01300
C257        C  0.59944655  0.63032325  0.63317157    -0.10900
C258        C  0.63984282  0.62852568  0.62928343     0.03800
C259        C  0.67152893  0.65894685  0.61448166    -0.10300
H260        H  0.61790670  0.72072016  0.60134535     0.09400
H261        H  0.57439270  0.60668393  0.64437372     0.06900
H262        H  0.70252045  0.65734998  0.61123930     0.06700
C263        C  0.69859772  0.73427076  0.80581966     0.03800
C264        C  0.65671127  0.73050774  0.79914218    -0.12400
C265        C  0.62596658  0.69246032  0.78648275     0.01300
C266        C  0.63611857  0.65658516  0.78190775    -0.10900
C267        C  0.67767988  0.66027733  0.78843018     0.03800
C268        C  0.70940253  0.69963848  0.79993977    -0.10300
H269        H  0.64917572  0.75807526  0.80322443     0.09400
H270        H  0.61204628  0.62571653  0.77300119     0.06900
H271        H  0.74136050  0.70198205  0.80508819     0.06700
C272        C  0.29534778  0.99907043  0.81677984     0.03800
C273        C  0.33012187  0.04618910  0.81066489    -0.12400
C274        C  0.36623133  0.05329171  0.79783706     0.01300
C275        C  0.36696781  0.01349852  0.79058202    -0.10900
C276        C  0.33112408  0.96615253  0.79546093     0.03800
C277        C  0.29608333  0.95903389  0.80917258    -0.10300
H278        H  0.32986152  0.07737672  0.81622532     0.09400
H279        H  0.39527389  0.01983261  0.78065169     0.06900
H280        H  0.26817743  0.92265972  0.81311054     0.06700
C281        C  0.53115370  0.67510872  0.75517466     0.21000
C282        C  0.50225113  0.65857053  0.73836814    -0.38900
C283        C  0.46848108  0.67172793  0.73707352     0.20000
C284        C  0.46364576  0.69928700  0.75138269     0.22600
C285        C  0.49273614  0.71594717  0.76829987    -0.39400
C286        C  0.52679849  0.70275336  0.76960813     0.21400
N287        N  0.56612557  0.66769174  0.75956088    -0.32700
C288        C  0.58475145  0.69068815  0.77699276    -0.10200
C289        C  0.56104427  0.71316350  0.78372888    -0.29000
N290        N  0.42824627  0.70615024  0.74662166    -0.45600
C291        C  0.41071008  0.68298534  0.72909017    -0.04900
C292        C  0.43481820  0.66071521  0.72286814    -0.22300
H293        H  0.50579065  0.63693813  0.72710361     0.19500
H294        H  0.48915322  0.73754207  0.77956145     0.18300
H295        H  0.56791745  0.73434027  0.79705926     0.14600
H296        H  0.42787108  0.63794132  0.71007168     0.14500
H297        H  0.57733091  0.64919124  0.75072146     0.32600
H298        H  0.41681025  0.72543539  0.75479607     0.35400
C299        C  0.51523874  0.69553670  0.64594640     0.21000
C300        C  0.50498677  0.72337209  0.65846577    -0.38900
C301        C  0.45947948  0.69944602  0.66661416     0.20000
C302        C  0.42643379  0.65157689  0.66239730     0.22600
C303        C  0.43689419  0.62351692  0.65013034    -0.39400
C304        C  0.48261396  0.64728857  0.64218518     0.21400
N305        N  0.55725885  0.70852258  0.63798041    -0.32700
C306        C  0.55167252  0.66804832  0.62947635    -0.10200
C307        C  0.50553219  0.62915758  0.63171471    -0.29000
N308        N  0.38655352  0.63657966  0.67272530    -0.45600
C309        C  0.39474570  0.67481747  0.68389757    -0.04900
C310        C  0.43964078  0.71480926  0.68044091    -0.22300
H311        H  0.53110717  0.76038194  0.66219711     0.19500
H312        H  0.41188420  0.58547065  0.64759715     0.18300
H313        H  0.49166070  0.59186766  0.62754585     0.14600
H314        H  0.45596788  0.74972941  0.68759727     0.14500
H315        H  0.58876025  0.74164157  0.63969524     0.32600
H316        H  0.35645425  0.60187806  0.67292509     0.35400
C317        C  0.33908441  0.88691307  0.76114058     0.21000
C318        C  0.35101086  0.87470834  0.74309070    -0.38900
C319        C  0.33699655  0.82610247  0.74112940     0.20000
C320        C  0.31333831  0.79228219  0.75609505     0.22600
C321        C  0.30115292  0.80446441  0.77420964    -0.39400
C322        C  0.31484593  0.85327281  0.77610668     0.21400
N323        N  0.34794819  0.93065196  0.76631902    -0.32700
C324        C  0.32932983  0.92542408  0.78477572    -0.10200
C325        C  0.30804944  0.87737535  0.79139335    -0.29000
N326        N  0.30463204  0.74865592  0.75054070    -0.45600
C327        C  0.32200314  0.75464632  0.73178631    -0.04900
C328        C  0.34295054  0.80267220  0.72550249    -0.22300
H329        H  0.36962321  0.90114558  0.73137689     0.19500
H330        H  0.28227251  0.77793569  0.78586405     0.18300
H331        H  0.29020266  0.86217713  0.80541688     0.14600
H332        H  0.36085388  0.81855625  0.71155554     0.14500
H333        H  0.36450392  0.96179273  0.75738782     0.32600
H334        H  0.28804719  0.71692139  0.75906287     0.35400
C335        C  0.28497923  0.85039143  0.65423378     0.21000
C336        C  0.26338277  0.81643094  0.66981789    -0.38900
C337        C  0.28186503  0.78682265  0.67364997     0.20000
C338        C  0.31851491  0.79027149  0.66254422     0.22600
C339        C  0.34013765  0.82421664  0.64704107    -0.39400
C340        C  0.32221812  0.85428528  0.64343683     0.21400
N341        N  0.27803569  0.88662137  0.64936264    -0.32700
C342        C  0.31151479  0.91405647  0.63562784    -0.10200
C343        C  0.33959034  0.89493852  0.63151180    -0.29000
N344        N  0.33239136  0.76120708  0.67011589    -0.45600
C345        C  0.30533294  0.73996727  0.68645170    -0.04900
C346        C  0.27284663  0.75442780  0.68902325    -0.22300
H347        H  0.23602611  0.81504806  0.67900464     0.19500
H348        H  0.37045485  0.82871428  0.63910628     0.18300
H349        H  0.37089170  0.91093945  0.62228627     0.14600
H350        H  0.24778318  0.74448072  0.70106412     0.14500
H351        H  0.25471974  0.89459763  0.65617047     0.32600
H352        H  0.36045461  0.75813480  0.66519609     0.35400
C353        C  0.67220592  0.48488130  0.67118658     0.21000
C354        C  0.68350551  0.51026070  0.65295923    -0.38900
C355        C  0.66896702  0.54378289  0.65098996     0.20000
C356        C  0.64518377  0.55121652  0.66606356     0.22600
C357        C  0.63408074  0.52608775  0.68420641    -0.39400
C358        C  0.64841294  0.49269457  0.68612434     0.21400
N359        N  0.68100868  0.45035333  0.67673348    -0.32700
C360        C  0.66310914  0.43671447  0.69539772    -0.10200
C361        C  0.64187145  0.46186354  0.70157640    -0.29000
N362        N  0.63324454  0.58306906  0.66037728    -0.45600
C363        C  0.64901509  0.59603033  0.64142019    -0.04900
C364        C  0.67211741  0.57270183  0.63508913    -0.22300
H365        H  0.70153877  0.50383848  0.64111398     0.19500
H366        H  0.61493240  0.53155223  0.69585956     0.18300
H367        H  0.62327020  0.45760313  0.71536426     0.14600
H368        H  0.68732193  0.57497845  0.62059371     0.14500
H369        H  0.69828679  0.43709039  0.66841194     0.32600
H370        H  0.61501394  0.59482180  0.66895085     0.35400
C371        C  0.67212697  0.55008169  0.77807035     0.21000
C372        C  0.64996479  0.49956286  0.77727387    -0.38900
C373        C  0.66723803  0.48182337  0.76282870     0.20000
C374        C  0.70364495  0.51212846  0.75002655     0.22600
C375        C  0.72622847  0.56275214  0.75096778    -0.39400
C376        C  0.70916340  0.58055099  0.76555015     0.21400
N377        N  0.65844377  0.57535181  0.78881485    -0.32700
C378        C  0.68704786  0.62218232  0.78320877    -0.10200
C379        C  0.71950340  0.62709448  0.76887486    -0.29000
N380        N  0.71005024  0.48623116  0.73627505    -0.45600
C381        C  0.67728805  0.43928370  0.74034341    -0.04900
C382        C  0.65051399  0.43496430  0.75698378    -0.22300
H383        H  0.61995389  0.47576715  0.78656608     0.19500
H384        H  0.75348282  0.58641301  0.74049838     0.18300
H385        H  0.74426368  0.65960416  0.76073613     0.14600
H386        H  0.62067388  0.40220297  0.76305130     0.14500
H387        H  0.62952079  0.56137318  0.79842877     0.32600
H388        H  0.73380162  0.49968005  0.72436527     0.35400
C389        C  0.46769437  0.13258522  0.66576207     0.21000
C390        C  0.49245532  0.14646024  0.68370650    -0.38900
C391        C  0.52385756  0.19616519  0.68592335     0.20000
C392        C  0.53055348  0.22963668  0.67134862     0.22600
C393        C  0.50614151  0.21566435  0.65321608    -0.39400
C394        C  0.47419799  0.16573129  0.65106311     0.21400
N395        N  0.43373149  0.08779565  0.66072385    -0.32700
C396        C  0.41798905  0.09193947  0.64263643    -0.10200
C397        C  0.44268443  0.14023535  0.63607994    -0.29000
N398        N  0.56156962  0.27481348  0.67744915    -0.45600
C399        C  0.57420213  0.26989896  0.69610970    -0.04900
C400        C  0.55189686  0.22122065  0.70171952    -0.22300
H401        H  0.48678883  0.12052699  0.69530927     0.19500
H402        H  0.51073070  0.24176911  0.64188600     0.18300
H403        H  0.43762007  0.15502612  0.62247411     0.14600
H404        H  0.55625194  0.20588452  0.71531961     0.14500
H405        H  0.42078619  0.05680279  0.66964112     0.32600
H406        H  0.57316115  0.30695659  0.66946268     0.35400
C407        C  0.50625671  0.22836575  0.75331032     0.21000
C408        C  0.45731975  0.19998084  0.75606662    -0.38900
C409        C  0.44182566  0.16514400  0.77136847     0.20000
C410        C  0.47280197  0.15871532  0.78279157     0.22600
C411        C  0.52166261  0.18724331  0.78010018    -0.39400
C412        C  0.53714536  0.22246763  0.76502491     0.21400
N413        N  0.52969070  0.26173621  0.73901085    -0.32700
C414        C  0.57571260  0.27699183  0.74167520    -0.10200
C415        C  0.58185749  0.25389879  0.75790711    -0.29000
N416        N  0.44934064  0.12000111  0.79484386    -0.45600
C417        C  0.40313699  0.10188268  0.79125492    -0.04900
C418        C  0.39691617  0.12910938  0.77676709    -0.22300
H419        H  0.43308122  0.20367304  0.74658279     0.19500
H420        H  0.54577890  0.18138284  0.78868797     0.18300
H421        H  0.61435365  0.25770239  0.76309993     0.14600
H422        H  0.36423609  0.12102972  0.76989437     0.14500
H423        H  0.51524222  0.27260906  0.72783874     0.32600
H424        H  0.46380615  0.10494602  0.80403831     0.35400
C425        C  0.86798667  0.36284976  0.76443656     0.21000
C426        C  0.85354451  0.37077350  0.74598622    -0.38900
C427        C  0.80642790  0.35752949  0.74486227     0.20000
C428        C  0.77582004  0.33780809  0.76084255     0.22600
C429        C  0.79030470  0.32976066  0.77939795    -0.39400
C430        C  0.83770248  0.34300308  0.78054205     0.21400
N431        N  0.91096251  0.37215111  0.76910074    -0.32700
C432        C  0.90846957  0.35795714  0.78832352    -0.10200
C433        C  0.86315956  0.33943748  0.79602074    -0.29000
N434        N  0.73312685  0.32955143  0.75590571    -0.45600
C435        C  0.73667888  0.34407409  0.73662529    -0.04900
C436        C  0.78217503  0.36212316  0.72937059    -0.22300
H437        H  0.87737839  0.38638906  0.73343518     0.19500
H438        H  0.76652151  0.31442416  0.79197196     0.18300
H439        H  0.85051717  0.32505721  0.81082031     0.14600
H440        H  0.79656009  0.37855178  0.71501322     0.14500
H441        H  0.93986456  0.38597727  0.75948473     0.32600
H442        H  0.70364005  0.31534493  0.76518375     0.35400
C443        C  0.13775214  0.50139334  0.78347065     0.21000
C444        C  0.16507920  0.55038958  0.77810085    -0.38900
C445        C  0.20141475  0.56232952  0.76451441     0.20000
C446        C  0.20983374  0.52806252  0.75670688     0.22600
C447        C  0.18304881  0.47906789  0.76240263    -0.39400
C448        C  0.14676839  0.46711489  0.77614258     0.21400
N449        N  0.09750392  0.48014702  0.79394857    -0.32700
C450        C  0.08088516  0.43208347  0.79341554    -0.10200
C451        C  0.11090038  0.42244699  0.78272016    -0.29000
N452        N  0.24226145  0.54767669  0.74210903    -0.45600
C453        C  0.25442972  0.59462259  0.74079115    -0.04900
C454        C  0.23013056  0.60520292  0.75461661    -0.22300
H455        H  0.15689118  0.57680439  0.78321476     0.19500
H456        H  0.18827705  0.45186036  0.75576152     0.18300
H457        H  0.10495595  0.38732349  0.77877474     0.14600
H458        H  0.23003709  0.63836250  0.75595585     0.14500
H459        H  0.08091002  0.49697256  0.80010113     0.32600
H460        H  0.25371392  0.52985682  0.73297053     0.35400
C461        C  0.82730398  0.33067414  0.65110257     0.21000
C462        C  0.80543320  0.35745921  0.65316593    -0.38900
C463        C  0.77026305  0.34063158  0.66776178     0.20000
C464        C  0.75806641  0.30034305  0.67952129     0.22600
C465        C  0.77938996  0.27306299  0.67723704    -0.39400
C466        C  0.81436431  0.28969580  0.66251909     0.21400
N467        N  0.86583653  0.34303996  0.64027567    -0.32700
C468        C  0.87729012  0.30959156  0.64470166    -0.10200
C469        C  0.84582030  0.27541713  0.65836278    -0.29000
N470        N  0.72805276  0.29546644  0.69394595    -0.45600
C471        C  0.72153071  0.33309557  0.69136963    -0.04900
C472        C  0.74629191  0.36143355  0.67495792    -0.22300
H473        H  0.81682396  0.39054199  0.64481129     0.19500
H474        H  0.77124469  0.24280081  0.68695798     0.18300
H475        H  0.84851791  0.24711947  0.66574660     0.14600
H476        H  0.74915491  0.39475309  0.66996476     0.14500
H477        H  0.88519163  0.37424418  0.63153421     0.32600
H478        H  0.71454266  0.26955371  0.70537694     0.35400
C479        C  0.09517148  0.45916351  0.67369569     0.21000
C480        C  0.11263925  0.48918741  0.69036476    -0.38900
C481        C  0.16116815  0.52278352  0.69023702     0.20000
C482        C  0.19005816  0.52645632  0.67467132     0.22600
C483        C  0.17255711  0.49646043  0.65797126    -0.39400
C484        C  0.12401715  0.46258756  0.65815494     0.21400
N485        N  0.05047430  0.42391690  0.67037858    -0.32700
C486        C  0.05071074  0.40445968  0.65259783    -0.10200
C487        C  0.09609513  0.42776377  0.64453101    -0.29000
N488        N  0.23480907  0.56156782  0.67811628    -0.45600
C489        C  0.23448589  0.58005647  0.69609785    -0.04900
C490        C  0.18900092  0.55702365  0.70400727    -0.22300
H491        H  0.09014865  0.48645051  0.70256784     0.19500
H492        H  0.19507803  0.49912941  0.64579749     0.18300
H493        H  0.10724172  0.42048204  0.63055457     0.14600
H494        H  0.17735315  0.56500845  0.71766883     0.14500
H495        H  0.02188493  0.41321124  0.67991726     0.32600
H496        H  0.26380252  0.57218424  0.66883390     0.35400
C497        C  0.75476072  0.81356767  0.84673260     0.21000
C498        C  0.75743232  0.83029828  0.86618080    -0.38900
C499        C  0.80291389  0.85843613  0.87400838     0.20000
C500        C  0.84279712  0.86980379  0.86317761     0.22600
C501        C  0.84010052  0.85247058  0.84383741    -0.39400
C502        C  0.79455684  0.82367796  0.83612846     0.21400
N503        N  0.71557398  0.78318500  0.83657112    -0.32700
C504        C  0.73044176  0.77293338  0.81958704    -0.10200
C505        C  0.77951833  0.79775880  0.81873315    -0.29000
N506        N  0.88175808  0.89620079  0.87413823    -0.45600
C507        C  0.86647182  0.90083220  0.89219559    -0.04900
C508        C  0.81751993  0.87774311  0.89269164    -0.22300
H509        H  0.72631162  0.82088691  0.87480142     0.19500
H510        H  0.87108338  0.85966805  0.83562945     0.18300
H511        H  0.80114597  0.79513604  0.80740199     0.14600
H512        H  0.79560055  0.87500500  0.90513110     0.14500
H513        H  0.68085959  0.76767397  0.84150389     0.32600
H514        H  0.91645310  0.90888064  0.86984271     0.35400
C515        C  0.20847237  0.96584617  0.85508491     0.21000
C516        C  0.18228156  0.94186401  0.87229873    -0.38900
C517        C  0.15387760  0.95848088  0.87985127     0.20000
C518        C  0.15150249  0.99566771  0.87074562     0.22600
C519        C  0.17797522  0.01989123  0.85374562    -0.39400
C520        C  0.20662296  0.00370940  0.84637632     0.21400
N521        N  0.23931238  0.95824543  0.84533770    -0.32700
C522        C  0.25764668  0.99208533  0.83055144    -0.10200
C523        C  0.23795243  0.02095721  0.83074343    -0.29000
N524        N  0.12325151  0.00584083  0.88099221    -0.45600
C525        C  0.10790608  0.97559968  0.89699599    -0.04900
C526        C  0.12614534  0.94529533  0.89680583    -0.22300
H527        H  0.18455600  0.91310853  0.87948594     0.19500
H528        H  0.17701893  0.04982692  0.84697268     0.18300
H529        H  0.24588293  0.05094159  0.82089413     0.14600
H530        H  0.12089807  0.91833144  0.90783094     0.14500
H531        H  0.24852516  0.93280837  0.84894174     0.32600
H532        H  0.11633401  0.03313561  0.87769787     0.35400
C533        C  0.99334024  0.23950714  0.85037447     0.21000
C534        C  0.01614666  0.21668892  0.85787272    -0.38900
C535        C  0.99822099  0.19132840  0.87579259     0.20000
C536        C  0.96053508  0.18889828  0.88563173     0.22600
C537        C  0.93734542  0.21145401  0.87799285    -0.39400
C538        C  0.95526119  0.23684244  0.85994185     0.21400
N539        N  0.00564313  0.26814861  0.83422340    -0.32700
C540        C  0.97553105  0.28440003  0.83345825    -0.10200
C541        C  0.94301230  0.26501445  0.84909821    -0.29000
N542        N  0.95039549  0.16226725  0.90243324    -0.45600
C543        C  0.98154809  0.14728014  0.90300227    -0.04900
C544        C  0.01195444  0.16484184  0.88669071    -0.22300
H545        H  0.04602454  0.21896487  0.85039957     0.19500
H546        H  0.90799162  0.20987489  0.88564101     0.18300
H547        H  0.91611231  0.27294433  0.85275682     0.14600
H548        H  0.03980049  0.15825517  0.88309540     0.14500
H549        H  0.03376751  0.27707339  0.82464070     0.32600
H550        H  0.92315225  0.15354285  0.91249888     0.35400
C551        C  0.78293021  0.82583674  0.53846641     0.21000
C552        C  0.73537767  0.79669967  0.54391877    -0.38900
C553        C  0.72630307  0.76957964  0.56153553     0.20000
C554        C  0.76176853  0.77074995  0.57271956     0.22600
C555        C  0.80933988  0.79997168  0.56731317    -0.39400
C556        C  0.81844259  0.82760574  0.54984672     0.21400
N557        N  0.80092280  0.85646737  0.52281436    -0.32700
C558        C  0.84827401  0.87831765  0.52439718    -0.10200
C559        C  0.86047211  0.86111069  0.54103970    -0.29000
N560        N  0.74398208  0.74257497  0.58904951    -0.45600
C561        C  0.69685201  0.72380556  0.58841366    -0.04900
C562        C  0.68456549  0.73979155  0.57142161    -0.22300
H563        H  0.70756679  0.79600660  0.53531801     0.19500
H564        H  0.83725639  0.80182618  0.57625872     0.18300
H565        H  0.89546898  0.87212481  0.54614201     0.14600
H566        H  0.64980272  0.73108972  0.56696885     0.14500
H567        H  0.78223157  0.86289865  0.51200710     0.32600
H568        H  0.76297080  0.73775152  0.60024445     0.35400
C569        C  0.00575853  0.23928981  0.58427702     0.21000
C570        C  0.03449047  0.23888943  0.56916837    -0.38900
C571        C  0.01639355  0.19510719  0.55904267     0.20000
C572        C  0.97318189  0.15450648  0.56374398     0.22600
C573        C  0.94406104  0.15514411  0.57870757    -0.39400
C574        C  0.96205356  0.19923771  0.58874346     0.21400
N575        N  0.01469924  0.27691361  0.59569153    -0.32700
C576        C  0.97631302  0.26112708  0.60750566    -0.10200
C577        C  0.94259827  0.21270754  0.60356117    -0.29000
N578        N  0.96382217  0.11765343  0.55163694    -0.45600
C579        C  0.00104026  0.13541038  0.53900749    -0.04900
C580        C  0.03439592  0.18355969  0.54309193    -0.22300
H581        H  0.06818383  0.27060090  0.56537692     0.19500
H582        H  0.90977359  0.12386711  0.58211593     0.18300
H583        H  0.90848789  0.19037205  0.61053125     0.14600
H584        H  0.06691511  0.20716767  0.53515508     0.14500
H585        H  0.04461788  0.31168425  0.59494578     0.32600
H586        H  0.93325824  0.08331231  0.55140563     0.35400
C587        C  0.20852514  0.06108845  0.54788794     0.21000
C588        C  0.25462169  0.07591583  0.55368517    -0.38900
C589        C  0.25860474  0.05397958  0.57110009     0.20000
C590        C  0.21963822  0.01943026  0.58172096     0.22600
C591        C  0.17371884  0.00524613  0.57613420    -0.39400
C592        C  0.16980151  0.02760223  0.55892474     0.21400
N593        N  0.19492752  0.07390787  0.53125213    -0.32700
C594        C  0.14722458  0.04849537  0.53185829    -0.10200
C595        C  0.13042963  0.01975533  0.54901476    -0.29000
N596        N  0.23256025  0.00224700  0.59710676    -0.45600
C597        C  0.28017781  0.02652071  0.59650845    -0.04900
C598        C  0.29776207  0.05930837  0.58055401    -0.22300
H599        H  0.28505426  0.10185904  0.54507977     0.19500
H600        H  0.14320527  0.97802927  0.58434831     0.18300
H601        H  0.09414547  0.99436594  0.55311097     0.14600
H602        H  0.33419810  0.08293521  0.57620962     0.14500
H603        H  0.21659713  0.09715656  0.51992235     0.32600
H604        H  0.21038038  0.97583667  0.60745248     0.35400
C605        C  0.22664993  0.18168620  0.38544575     0.21000
C606        C  0.27376582  0.21440326  0.37974706    -0.38900
C607        C  0.28038860  0.23687882  0.36093085     0.20000
C608        C  0.24286364  0.22793610  0.34897874     0.22600
C609        C  0.19616510  0.19490401  0.35449759    -0.39400
C610        C  0.18968129  0.17213083  0.37303308     0.21400
N611        N  0.21030032  0.15718119  0.40287080    -0.32700
C612        C  0.16261154  0.13176582  0.40130213    -0.10200
C613        C  0.14881553  0.14011280  0.38283516    -0.29000
N614        N  0.25777160  0.25589361  0.33251812    -0.45600
C615        C  0.30530784  0.28255534  0.33366223    -0.04900
C616        C  0.32087791  0.27152573  0.35112502    -0.22300
H617        H  0.30299112  0.22244135  0.38936363     0.19500
H618        H  0.16684344  0.18815951  0.34519596     0.18300
H619        H  0.11333010  0.12594786  0.37752795     0.14600
H620        H  0.35673973  0.28819337  0.35633070     0.14500
H621        H  0.23017030  0.15837783  0.41512343     0.32600
H622        H  0.23682064  0.25724406  0.32126736     0.35400
C623        C  0.79677048  0.02375224  0.34647972     0.21000
C624        C  0.84215220  0.04182102  0.35392126    -0.38900
C625        C  0.84470765  0.02097620  0.37184993     0.20000
C626        C  0.80519258  0.98518442  0.38179353     0.22600
C627        C  0.75975173  0.96652318  0.37415656    -0.39400
C628        C  0.75718648  0.98706351  0.35607139     0.21400
N629        N  0.78479407  0.03924753  0.33023714    -0.32700
C630        C  0.73722799  0.01192725  0.32935858    -0.10200
C631        C  0.71875472  0.97864435  0.34509879    -0.29000
N632        N  0.81729045  0.97255884  0.39889248    -0.45600
C633        C  0.86489173  0.00024378  0.39960278    -0.04900
C634        C  0.88311621  0.03070660  0.38298586    -0.22300
H635        H  0.87315548  0.07049204  0.34645566     0.19500
H636        H  0.72868671  0.93857591  0.38183670     0.18300
H637        H  0.68205469  0.95333279  0.34853915     0.14600
H638        H  0.91967073  0.05679216  0.37958682     0.14500
H639        H  0.80751873  0.06710984  0.32051105     0.32600
H640        H  0.79474844  0.94648270  0.40926306     0.35400
C641        C  0.01246580  0.87214398  0.36357531     0.21000
C642        C  0.03904937  0.87242393  0.34734666    -0.38900
C643        C  0.02194938  0.82778720  0.33797546     0.20000
C644        C  0.98094127  0.78620362  0.34402568     0.22600
C645        C  0.95461645  0.78574618  0.36043882    -0.39400
C646        C  0.97230457  0.83023111  0.37009796     0.21400
N647        N  0.02313671  0.90919266  0.37573441    -0.32700
C648        C  0.99035244  0.89050780  0.39040530    -0.10200
C649        C  0.95791248  0.84139372  0.38741624    -0.29000
N650        N  0.97303886  0.74823851  0.33298788    -0.45600
C651        C  0.00974306  0.76560156  0.32005581    -0.04900
C652        C  0.04092682  0.81513890  0.32272309    -0.22300
H653        H  0.07145959  0.90472663  0.34273681     0.19500
H654        H  0.92357582  0.75287569  0.36569424     0.18300
H655        H  0.92884247  0.81689512  0.39699664     0.14600
H656        H  0.07337985  0.83863439  0.31473323     0.14500
H657        H  0.05248264  0.94433014  0.37478447     0.32600
H658        H  0.94537720  0.71237013  0.33469665     0.35400
C659        C  0.84032594  0.01529803  0.05498494     0.21000
C660        C  0.81339028  0.98816030  0.07143601    -0.38900
C661        C  0.78624709  0.00437274  0.08037779     0.20000
C662        C  0.78625174  0.04485908  0.07359806     0.22600
C663        C  0.81278231  0.07171559  0.05689521    -0.39400
C664        C  0.83970091  0.05515404  0.04777751     0.21400
N665        N  0.86883449  0.00698328  0.04398228    -0.32700
C666        C  0.88616703  0.04120923  0.02941260    -0.10200
C667        C  0.86876904  0.07204088  0.03120519    -0.29000
N668        N  0.75778254  0.05290611  0.08491249    -0.45600
C669        C  0.73917370  0.01693103  0.09882934    -0.04900
C670        C  0.75609966  0.98591380  0.09641112    -0.22300
H671        H  0.81351537  0.95663660  0.07685244     0.19500
H672        H  0.81238271  0.10302182  0.05139416     0.18300
H673        H  0.87637631  0.10252608  0.02173454     0.14600
H674        H  0.74775872  0.95430558  0.10527142     0.14500
H675        H  0.87543148  0.97903130  0.04605415     0.32600
H676        H  0.75070159  0.08054659  0.08300751     0.35400
C677        C  0.06140045  0.85338651  0.04354019     0.21000
C678        C  0.08331480  0.82877573  0.05052287    -0.38900
C679        C  0.06279206  0.79928871  0.06755184     0.20000
C680        C  0.02337716  0.79461195  0.07667765     0.22600
C681        C  0.00201115  0.81952359  0.06990796    -0.39400
C682        C  0.02263722  0.84909454  0.05313601     0.21400
N683        N  0.07268398  0.88239456  0.02732799    -0.32700
C684        C  0.04109859  0.89693224  0.02694629    -0.10200
C685        C  0.00958641  0.87694874  0.04283323    -0.29000
N686        N  0.00857954  0.76239118  0.09170032    -0.45600
C687        C  0.03854948  0.74596023  0.09234774    -0.04900
C688        C  0.07337397  0.76866303  0.07764267    -0.22300
H689        H  0.11344935  0.83162473  0.04306129     0.19500
H690        H  0.97099607  0.81551763  0.07700663     0.18300
H691        H  0.98028100  0.88141652  0.04614973     0.14600
H692        H  0.10105573  0.76178228  0.07414510     0.14500
H693        H  0.10000434  0.89172455  0.01722629     0.32600
H694        H  0.97924128  0.75172993  0.10076947     0.35400
C695        C  0.13671675  0.65863824  0.16325428     0.21000
C696        C  0.14737782  0.64539249  0.18147820    -0.38900
C697        C  0.19474332  0.66106992  0.18438280     0.20000
C698        C  0.22901813  0.68783001  0.17021905     0.22600
C699        C  0.21832804  0.70136332  0.15195327    -0.39400
C700        C  0.17069972  0.68572032  0.14904521     0.21400
N701        N  0.09431346  0.64854101  0.15717668    -0.32700
C702        C  0.10077029  0.66924256  0.13888446    -0.10200
C703        C  0.14822943  0.69303488  0.13331488    -0.29000
N704        N  0.27141603  0.69810589  0.17670653    -0.45600
C705        C  0.26393511  0.67834047  0.19521306    -0.04900
C706        C  0.21645739  0.65446201  0.20039582    -0.22300
H707        H  0.12070796  0.62452871  0.19261989     0.19500
H708        H  0.24507088  0.72261439  0.14089870     0.18300
H709        H  0.16417063  0.71301703  0.11969002     0.14600
H710        H  0.20002241  0.63474328  0.21402392     0.14500
H711        H  0.06317720  0.62990958  0.16544196     0.32600
H712        H  0.30345030  0.71777905  0.16913269     0.35400
C713        C  0.22752398  0.69794891  0.26225158     0.21000
C714        C  0.19573422  0.68375621  0.27821717    -0.38900
C715        C  0.16881579  0.70559936  0.27888283     0.20000
C716        C  0.17329442  0.73913778  0.26473361     0.22600
C717        C  0.20507381  0.75330725  0.24876334    -0.39400
C718        C  0.23187086  0.73136132  0.24807834     0.21400
N719        N  0.25405115  0.67941078  0.25734446    -0.32700
C720        C  0.27463237  0.70042943  0.23973286    -0.10200
C721        C  0.26236648  0.73374050  0.23366839    -0.29000
N722        N  0.14009638  0.75033146  0.26737884    -0.45600
C723        C  0.11424691  0.72366909  0.28325485    -0.04900
C724        C  0.13110807  0.69539731  0.29085541    -0.22300
H725        H  0.19074251  0.65605952  0.28880706     0.19500
H726        H  0.20716440  0.77784979  0.23719912     0.18300
H727        H  0.27270333  0.75515268  0.22009391     0.14600
H728        H  0.11524142  0.66787853  0.30239555     0.14500
H729        H  0.25607682  0.65225477  0.26492789     0.32600
H730        H  0.13299130  0.77164040  0.25800719     0.35400
C731        C  0.55752746  0.84990941  0.16029701     0.21000
C732        C  0.54406530  0.81706411  0.17628569    -0.38900
C733        C  0.49562850  0.78934830  0.18028367     0.20000
C734        C  0.46311147  0.79398658  0.16919937     0.22600
C735        C  0.47658513  0.82715039  0.15338944    -0.39400
C736        C  0.52493891  0.85480736  0.14938528     0.21400
N737        N  0.60155848  0.88375343  0.15477753    -0.32700
C738        C  0.59680777  0.91050284  0.14041862    -0.10200
C739        C  0.54962428  0.89349853  0.13662349    -0.29000
N740        N  0.41964431  0.76589229  0.17674787    -0.45600
C741        C  0.42463142  0.74388538  0.19293649    -0.04900
C742        C  0.47139065  0.75712178  0.19553557    -0.22300
H743        H  0.56953561  0.81458802  0.18540279     0.19500
H744        H  0.45143268  0.83232123  0.14528178     0.18300
H745        H  0.53549155  0.90994588  0.12708603     0.14600
H746        H  0.48586386  0.74627823  0.20747972     0.14500
H747        H  0.63278496  0.89087235  0.16151259     0.32600
H748        H  0.38891898  0.76384310  0.17185549     0.35400
C749        C  0.48444083  0.83246168  0.24426112     0.21000
C750        C  0.51778265  0.88219700  0.24353942    -0.38900
C751        C  0.54748718  0.90072281  0.26003497     0.20000
C752        C  0.54445050  0.87202315  0.27602498     0.22600
C753        C  0.51093487  0.82212632  0.27676865    -0.39400
C754        C  0.48102632  0.80353078  0.26024607     0.21400
N755        N  0.45201443  0.80640720  0.23048487    -0.32700
C756        C  0.42791645  0.76032850  0.23760471    -0.10200
C757        C  0.44459788  0.75717184  0.25625483    -0.29000
N758        N  0.57698878  0.89861175  0.28977638    -0.45600
C759        C  0.60080029  0.94467501  0.28248677    -0.04900
C760        C  0.58325061  0.94715526  0.26391879    -0.22300
H761        H  0.52035281  0.90482595  0.23105581     0.19500
H762        H  0.50828737  0.79952255  0.28927252     0.18300
H763        H  0.43194858  0.72532482  0.26558538     0.14600
H764        H  0.59543526  0.97847175  0.25428973     0.14500
H765        H  0.44608955  0.81954455  0.21726001     0.32600
H766        H  0.58212683  0.88606470  0.30333222     0.35400
C767        C  0.34861635  0.56195127  0.26813148     0.21000
C768        C  0.37499152  0.55153788  0.28121073    -0.38900
C769        C  0.35539361  0.50253357  0.28612969     0.15200
C770        C  0.31255558  0.46646740  0.27870615     0.22600
C771        C  0.28629639  0.47687462  0.26545317    -0.39400
C772        C  0.30605420  0.52597767  0.26044345     0.21400
N773        N  0.36201070  0.60499841  0.25968659    -0.32700
C774        C  0.32833165  0.59628811  0.24623384    -0.10200
C775        C  0.29241926  0.54758720  0.24644904    -0.29000
N776        N  0.30396444  0.42245356  0.28416576    -0.45600
C777        C  0.34195709  0.43071246  0.29484493    -0.04900
C778        C  0.37459853  0.48016350  0.29645186    -0.22300
H779        H  0.40935192  0.57931938  0.28641893     0.19500
H780        H  0.25401258  0.44864122  0.25880829     0.18300
H781        H  0.26228916  0.52993341  0.23668515     0.14600
H782        H  0.40924642  0.49720800  0.30303731     0.14500
H783        H  0.39380936  0.63755099  0.26182225     0.32600
H784        H  0.27590987  0.38891861  0.27961677     0.35400
C785        C  0.83391928  0.50358182  0.23521804     0.21000
C786        C  0.88242297  0.53684503  0.23489489    -0.38900
C787        C  0.89964095  0.57013803  0.25043752     0.20000
C788        C  0.87094417  0.57036570  0.26523916     0.22600
C789        C  0.82217790  0.53703430  0.26553304    -0.39400
C790        C  0.80481486  0.50366951  0.24989065     0.21400
N791        N  0.80933092  0.46797493  0.22223161    -0.32700
C792        C  0.76397689  0.44557276  0.22841448    -0.10200
C793        C  0.75974625  0.46636464  0.24577338    -0.29000
N794        N  0.89646451  0.60512211  0.27856935    -0.45600
C795        C  0.94182442  0.62707050  0.27219540    -0.04900
C796        C  0.94484326  0.60620573  0.25457033    -0.22300
H797        H  0.90514290  0.53660058  0.22344486     0.19500
H798        H  0.79954838  0.53688128  0.27712027     0.18300
H799        H  0.72801050  0.45576740  0.25414913     0.14600
H800        H  0.97581760  0.61581883  0.24582163     0.14500
H801        H  0.82296615  0.45891908  0.21018664     0.32600
H802        H  0.88369113  0.61238585  0.29141768     0.35400
C803        C  0.80591999  0.46579796  0.15972009     0.21000
C804        C  0.83975597  0.47449030  0.14519539    -0.38900
C805        C  0.87024847  0.52315860  0.13978652     0.20000
C806        C  0.86689191  0.56033943  0.14802160     0.22600
C807        C  0.83326407  0.55164810  0.16267888    -0.39400
C808        C  0.80309762  0.50299458  0.16825161     0.21400
N809        N  0.77586416  0.42331073  0.16864334    -0.32700
C810        C  0.75443886  0.43355414  0.18322978    -0.10200
C811        C  0.76999122  0.48281749  0.18328034    -0.29000
N812        N  0.90265952  0.60361693  0.14177839    -0.45600
C813        C  0.92941580  0.59393650  0.12981771    -0.04900
C814        C  0.91026073  0.54417635  0.12814479    -0.22300
H815        H  0.84353394  0.44570003  0.13926051     0.19500
H816        H  0.83211035  0.58081182  0.16987388     0.18300
H817        H  0.76012591  0.50159527  0.19357174     0.14600
H818        H  0.92550927  0.52606037  0.12065105     0.14500
H819        H  0.77241362  0.38996286  0.16583141     0.32600
H820        H  0.91058670  0.63764044  0.14664419     0.35400
C821        C  0.49453857  0.34449844  0.27592485     0.21000
C822        C  0.52638802  0.32838426  0.27509973    -0.38900
C823        C  0.55424745  0.34116426  0.25777425     0.20000
C824        C  0.55044063  0.36770735  0.24244201     0.22600
C825        C  0.51892082  0.38404708  0.24331844    -0.39400
C826        C  0.49130813  0.37144749  0.26063231     0.21400
N827        N  0.46365296  0.33669604  0.29058117    -0.32700
C828        C  0.44068117  0.35911302  0.28461646    -0.10200
C829        C  0.45719905  0.38107810  0.26593578    -0.29000
N830        N  0.58010928  0.37448858  0.22749128    -0.45600
C831        C  0.60307199  0.35202723  0.23325431    -0.04900
C832        C  0.58825224  0.33129374  0.25216920    -0.22300
H833        H  0.52913533  0.30728977  0.28700998     0.19500
H834        H  0.51589641  0.40480610  0.23133251     0.18300
H835        H  0.44522431  0.40058801  0.25705721     0.14600
H836        H  0.60023109  0.31116245  0.26057277     0.14500
H837        H  0.45885030  0.31751998  0.30382393     0.32600
H838        H  0.58484545  0.39385458  0.21430362     0.35400
C839        C  0.69345420  0.17990005  0.28193263     0.21000
C840        C  0.67262223  0.20770694  0.27942457    -0.38900
C841        C  0.68928806  0.24017610  0.26325126     0.20000
C842        C  0.72397092  0.24448594  0.25052383     0.22600
C843        C  0.74529125  0.21724787  0.25320393    -0.39400
C844        C  0.72876085  0.18489281  0.26940125     0.21400
N845        N  0.67909587  0.14178254  0.29425414    -0.32700
C846        C  0.70554868  0.12260789  0.28958756    -0.10200
C847        C  0.73721832  0.14872253  0.27430704    -0.29000
N848        N  0.72984699  0.27364899  0.23504622    -0.45600
C849        C  0.69841073  0.28765872  0.23785267    -0.04900
C850        C  0.67313469  0.26833794  0.25547188    -0.22300
H851        H  0.64368285  0.20242090  0.28867214     0.19500
H852        H  0.77090839  0.21906715  0.24276442     0.18300
H853        H  0.75965137  0.13930886  0.26644384     0.14600
H854        H  0.64460971  0.27172917  0.26109847     0.14500
H855        H  0.65051215  0.12727199  0.30407362     0.32600
H856        H  0.75267765  0.28213554  0.22297367     0.35400
C857        C  0.69427572  0.16070661  0.15408165     0.21000
C858        C  0.71062447  0.21046926  0.15348219    -0.38900
C859        C  0.69919533  0.22845418  0.17012656     0.20000
C860        C  0.67369788  0.19917167  0.18609732     0.22600
C861        C  0.65729553  0.14962124  0.18665288    -0.39400
C862        C  0.66853236  0.13171633  0.17005670     0.21400
N863        N  0.69981872  0.13439039  0.14014612    -0.32700
C864        C  0.67709939  0.08822479  0.14733346    -0.10200
C865        C  0.65741444  0.08552058  0.16601490    -0.29000
N866        N  0.66672292  0.22452685  0.19989692    -0.45600
C867        C  0.68809883  0.27053529  0.19277398    -0.04900
C868        C  0.70835584  0.27427786  0.17414026    -0.22300
H869        H  0.73039990  0.23336046  0.14096106     0.19500
H870        H  0.63698368  0.12659776  0.19905656     0.18300
H871        H  0.63795382  0.05414529  0.17561824     0.14600
H872        H  0.72690042  0.30599810  0.16469398     0.14500
H873        H  0.71725331  0.14705007  0.12651219     0.32600
H874        H  0.64731176  0.21087372  0.21305105     0.35400
C875        C  0.19525443  0.18859495  0.05249191     0.21000
C876        C  0.24202153  0.22091885  0.05789714    -0.38900
C877        C  0.24876783  0.23889957  0.07724188     0.20000
C878        C  0.21176439  0.22629509  0.09021602     0.22600
C879        C  0.16480117  0.19307325  0.08491193    -0.39400
C880        C  0.15803740  0.17448243  0.06553283     0.21400
N881        N  0.17985447  0.16765932  0.03474308    -0.32700
C882        C  0.13247219  0.13936464  0.03640917    -0.10200
C883        C  0.11738530  0.14229360  0.05546599    -0.29000
N884        N  0.22784508  0.24952074  0.10762106    -0.45600
C885        C  0.27537190  0.27625171  0.10569149    -0.04900
C886        C  0.28964987  0.27043563  0.08698869    -0.22300
H887        H  0.27106130  0.23150080  0.04772305     0.19500
H888        H  0.13575213  0.18271359  0.09504934     0.18300
H889        H  0.08159132  0.12442401  0.06098705     0.14600
H890        H  0.32523620  0.28720434  0.08130063     0.14500
H891        H  0.20040950  0.17236477  0.02220467     0.32600
H892        H  0.20795743  0.24656218  0.12015912     0.35400
C893        C  0.46149383  0.30475513  0.16104583     0.21000
C894        C  0.47647900  0.28339869  0.17508127    -0.38900
C895        C  0.52519551  0.30709545  0.17790048     0.20000
C896        C  0.55665918  0.34851693  0.16731677     0.22600
C897        C  0.54166907  0.37015243  0.15342934    -0.39400
C898        C  0.49289932  0.34682033  0.15080302     0.21400
N899        N  0.41697687  0.29203909  0.15718421    -0.32700
C900        C  0.42015115  0.32661696  0.14467617    -0.10200
C901        C  0.46682351  0.36133102  0.14028064    -0.29000
N902        N  0.60081650  0.36570263  0.17357534    -0.45600
C903        C  0.59717637  0.33563030  0.18850446    -0.04900
C904        C  0.55073307  0.29843446  0.19159488    -0.22300
H905        H  0.45190938  0.25189223  0.18379077     0.19500
H906        H  0.56605389  0.40379611  0.14586716     0.18300
H907        H  0.47983273  0.39436649  0.13167776     0.14600
H908        H  0.53740457  0.27021289  0.20287565     0.14500
H909        H  0.38644865  0.26369710  0.16376522     0.32600
H910        H  0.63125406  0.39732828  0.16877245     0.35400
C911        C  0.31369494  0.46130631  0.16410607     0.21000
C912        C  0.29998688  0.49570529  0.16302924    -0.38900
C913        C  0.31337245  0.52752804  0.17921512     0.20000
C914        C  0.33857550  0.52516485  0.19508825     0.22600
C915        C  0.35212851  0.49091876  0.19617609    -0.39400
C916        C  0.33870761  0.45922037  0.18011269     0.21400
N917        N  0.30730811  0.42837633  0.15035243    -0.32700
C918        C  0.32884654  0.40554934  0.15763209    -0.10200
C919        C  0.34840115  0.42371183  0.17627667    -0.29000
N920        N  0.34843706  0.56002826  0.20826487    -0.45600
C921        C  0.32857361  0.58450409  0.20110601    -0.04900
C922        C  0.30687437  0.56567633  0.18281782    -0.22300
H923        H  0.28095745  0.49796935  0.15042779     0.19500
H924        H  0.37235651  0.48958173  0.20850662     0.18300
H925        H  0.36808281  0.41323122  0.18565914     0.14600
H926        H  0.28877012  0.57814260  0.17346461     0.14500
H927        H  0.29108780  0.42329880  0.13653376     0.32600
H928        H  0.36902268  0.56751932  0.22098541     0.35400
loop_ 
_geom_bond_atom_site_label_1 
_geom_bond_atom_site_label_2 
_geom_bond_distance 
_geom_bond_site_symmetry_2 
_ccdc_geom_bond_type 
C1            C2   1.407       .  A
C1            C6   1.403       .  A
C1          C885   1.473       .  S
C2            C3   1.409       .  A
C2            H7   1.083       .  S
C3            C4   1.406       .  A
C3          C918   1.485       .  S
C4            C5   1.397       .  A
C4            H8   1.083       .  S
C5            C6   1.395       .  A
C5          C900   1.465       .  S
C6            H9   1.084       .  S
C10          H11   1.111       .  S
C10          C16   1.534       .  S
C10          C15   1.535       .  S
C10          C14   1.540       .  S
C12          H13   1.111       .  S
C12          C18   1.536       .  S
C12          C17   1.528       .  S
C12          C19   1.534       .  S
C14          C17   1.375       .  D
C14         C792   1.476       .  S
C15          C18   1.376       .  D
C15         C849   1.478       .  S
C16          C19   1.373       .  D
C16         C831   1.486       .  S
C17         C810   1.480       .  S
C18         C867   1.482       .  S
C19         C903   1.468       .  S
C20          H21   1.111       .  S
C20          C26   1.533       .  S
C20          C25   1.534       .  S
C20          C24   1.533       .  S
C22          H23   1.111       .  S
C22          C28   1.534       .  S
C22          C27   1.538       .  S
C22          C29   1.535       .  S
C24          C27   1.376       .  D
C24         C774   1.474       .  S
C25          C28   1.375       .  D
C25         C720   1.480       .  S
C26          C29   1.373       .  D
C26         C756   1.480       .  S
C27         C921   1.487       .  S
C28         C705   1.477       .  S
C29         C741   1.473       .  S
C30          C31   1.410       .  A
C30          C35   1.408   1_455  A
C30         C687   1.483       .  S
C31          C32   1.411       .  A
C31          H36   1.083       .  S
C32          C33   1.404       .  A
C32         C702   1.484       .  S
C33          C34   1.396   1_455  A
C33          H37   1.083       .  S
C34          C35   1.397       .  A
C34         C813   1.471       .  S
C35          H38   1.083       .  S
C39          C40   1.407   1_545  A
C39          C44   1.409       .  A
C39         C669   1.479       .  S
C40          C41   1.397       .  A
C40          H45   1.083       .  S
C41          C42   1.394       .  A
C41         C738   1.466       .  S
C42          C43   1.402   1_565  A
C42          H46   1.083       .  S
C43          C44   1.407       .  A
C43         C864   1.484       .  S
C44          H47   1.082       .  S
C48          C49   1.408       .  A
C48          C53   1.407   1_455  A
C48         C651   1.479       .  S
C49          C50   1.399       .  A
C49          H54   1.083       .  S
C50          C51   1.396       .  A
C50         C723   1.469       .  S
C51          C52   1.404   1_455  A
C51          H55   1.082       .  S
C52          C53   1.406       .  A
C52         C795   1.484       .  S
C53          H56   1.082       .  S
C57          C58   1.405   1_545  A
C57          C62   1.404       .  A
C57         C630   1.474       .  S
C58          C59   1.405       .  A
C58          H63   1.082       .  S
C59          C60   1.404   1_565  A
C59         C759   1.483       .  S
C60          C61   1.398       .  A
C60          H64   1.083       .  S
C61          C62   1.398       .  A
C61         C846   1.467       .  S
C62          H65   1.084       .  S
C66          C67   1.411       .  A
C66          C71   1.407       .  A
C66         C615   1.481       .  S
C67          C68   1.412       .  A
C67          H72   1.082       .  S
C68          C69   1.405       .  A
C68         C828   1.492       .  S
C69          C70   1.398       .  A
C69          H73   1.083       .  S
C70          C71   1.400       .  A
C70         C777   1.473       .  S
C71          H74   1.084       .  S
Zr75         O76   2.444   1_545  S
Zr75         O77   2.443       .  S
Zr75         O78   2.420   1_655  S
Zr75         O81   2.422   1_545  S
Zr75         O83   2.381   1_655  S
Zr75         O84   2.379       .  S
Zr75         O85   2.415   1_645  S
Zr75         O86   2.390   1_545  S
O76         H132   0.990   1_655  S
O76         H140   0.991   1_655  S
O77          C97   1.282   1_655  A
O78          C99   1.280       .  A
O79         Zr89   2.451       .  S
O79          C98   1.287       .  A
O80         Zr88   2.445       .  S
O80          C99   1.285       .  A
O81          C98   1.282       .  A
O82         Zr90   2.411       .  S
O82          C97   1.278       .  A
O83         Zr88   2.407       .  S
O83         Zr90   2.376       .  S
O84         Zr89   2.395   1_545  S
O84         Zr90   2.383   1_655  S
O84         H119   0.968       .  S
O85         Zr88   2.412   1_565  S
O85        Zr105   2.406   1_455  S
O85         H122   0.966       .  S
O86         Zr89   2.388       .  S
O86        Zr105   2.385       .  S
Zr87        O112   2.443       .  S
Zr87        O106   2.437   1_545  S
Zr87        O114   2.411   1_455  S
Zr87        O102   2.423       .  S
Zr87         O93   2.401   1_455  S
Zr87         O94   2.406       .  S
Zr87         O95   2.373   1_545  S
Zr87         O96   2.377   1_445  S
Zr88        O107   2.435       .  S
Zr88        O100   2.435       .  S
Zr88        O101   2.463       .  S
Zr88         O94   2.405       .  S
Zr88         O95   2.399   1_545  S
Zr89         O91   2.435       .  S
Zr89        O113   2.436       .  S
Zr89        O115   2.444       .  S
Zr89         O93   2.399   1_565  S
Zr89         O96   2.395       .  S
Zr90        O116   2.436   1_455  S
Zr90        O117   2.435       .  S
Zr90         O92   2.437       .  S
Zr90         O93   2.395   1_455  S
Zr90         O94   2.391       .  S
O91         H128   0.990       .  S
O92         H123   0.990       .  S
O92         H137   0.990       .  S
O94         H120   0.965       .  S
O95        Zr105   2.383   1_455  S
O96        Zr105   2.378       .  S
O96         H121   0.967       .  S
C97         C579   1.464       .  S
C98         C558   1.474       .  S
C99         C594   1.472       .  S
O100        H136   0.991       .  S
O101        C103   1.288       .  A
O102        C103   1.281       .  A
C103        C612   1.483       .  S
O104       Zr105   2.438       .  S
O104        H133   0.991       .  S
Zr105       O108   2.437   1_655  S
Zr105       O109   2.440       .  S
Zr105       O110   2.421       .  S
O106        C111   1.282   1_455  A
O107        H124   0.990       .  S
O107        H139   0.990       .  S
O108        H125   0.990       .  S
O109        H129   0.990       .  S
O109        H138   0.990       .  S
O110        C111   1.280       .  A
C111        C648   1.467       .  S
O112        H131   0.990       .  S
O112        H135   0.991       .  S
O113        H127   0.990   1_565  S
O113        H134   0.990       .  S
O114        C118   1.280   1_545  A
O115        C118   1.286       .  A
O116        H126   0.990       .  S
O117        H130   0.990       .  S
C118        C633   1.470   1_565  S
Zr141       O142   2.444       .  S
Zr141       O143   2.447   1_445  S
Zr141       O144   2.434       .  S
Zr141       O147   2.421       .  S
Zr141       O149   2.373   1_445  S
Zr141       O150   2.383   1_455  S
Zr141       O151   2.413       .  S
Zr141       O152   2.402       .  S
O142        H198   0.991       .  S
O142        H206   0.990       .  S
O143        C163   1.284       .  A
O144        C165   1.283   1_545  A
O145       Zr155   2.439       .  S
O145        C164   1.284       .  A
O146       Zr154   2.443       .  S
O146        C165   1.285       .  A
O147        C164   1.282   1_455  A
O148       Zr156   2.417       .  S
O148        C163   1.280       .  A
O149       Zr154   2.403   1_655  S
O149       Zr156   2.382       .  S
O150       Zr155   2.396       .  S
O150       Zr156   2.380   1_545  S
O150        H185   0.964   1_545  S
O151       Zr154   2.402   1_545  S
O151       Zr171   2.396       .  S
O151        H188   0.966       .  S
O152       Zr155   2.392   1_455  S
O152       Zr171   2.389       .  S
Zr153       O178   2.443   1_545  S
Zr153       O172   2.444   1_655  S
Zr153       O180   2.430       .  S
Zr153       O168   2.426   1_645  S
Zr153       O159   2.400   1_544  S
Zr153       O160   2.407   1_544  S
Zr153       O161   2.380   1_654  S
Zr153       O162   2.379   1_654  S
Zr154       O173   2.436       .  S
Zr154       O166   2.434       .  S
Zr154       O167   2.453       .  S
Zr154       O160   2.401   1_455  S
Zr154       O161   2.398   1_565  S
Zr155       O157   2.435       .  S
Zr155       O179   2.439       .  S
Zr155       O181   2.434       .  S
Zr155       O159   2.399   1_545  S
Zr155       O162   2.396   1_655  S
Zr156       O182   2.434       .  S
Zr156       O183   2.436       .  S
Zr156       O158   2.438       .  S
Zr156       O159   2.393       .  S
Zr156       O160   2.393       .  S
O157        H194   0.990       .  S
O158        H189   0.990       .  S
O158        H203   0.990       .  S
O160        H186   0.965       .  S
O161       Zr171   2.380       .  S
O162       Zr171   2.379       .  S
O162        H187   0.965       .  S
C163        C507   1.472       .  S
C164        C543   1.468       .  S
C165        C525   1.474       .  S
O166        H202   0.990       .  S
O167        C169   1.287   1_556  A
O168        C169   1.283       .  A
C169        C684   1.476       .  S
O170       Zr171   2.438       .  S
O170        H199   0.990       .  S
Zr171       O174   2.435       .  S
Zr171       O175   2.440       .  S
Zr171       O176   2.413   1_556  S
O172        C177   1.284       .  A
O173        H190   0.990   1_565  S
O173        H205   0.990       .  S
O174        H191   0.989       .  S
O175        H195   0.990       .  S
O175        H204   0.990       .  S
O176        C177   1.280       .  A
C177        C882   1.471       .  S
O178        H197   0.990       .  S
O178        H201   0.991       .  S
O179        H193   0.990       .  S
O179        H200   0.990       .  S
O180        C184   1.282       .  A
O181        C184   1.284   1_556  A
O182        H192   0.990       .  S
O183        H196   0.990       .  S
C184        C666   1.470       .  S
C207        C208   1.406       .  A
C207        C212   1.407   1_655  A
C207        C576   1.481       .  S
C208        C209   1.400       .  A
C208        H213   1.083       .  S
C209        C210   1.399       .  A
C209        C468   1.465       .  S
C210        C211   1.400   1_655  A
C210        H214   1.083       .  S
C211        C212   1.404       .  A
C211        C486   1.480       .  S
C212        H215   1.082       .  S
C216        C217   1.408       .  A
C216        C221   1.405   1_655  A
C216        C540   1.477       .  S
C217        C218   1.407       .  A
C217        H222   1.083       .  S
C218        C219   1.403       .  A
C218        C432   1.479       .  S
C219        C220   1.397   1_655  A
C219        H223   1.084   1_655  S
C220        C221   1.395       .  A
C220        C450   1.468       .  S
C221        H224   1.083       .  S
C225        H226   1.111       .  S
C225        C231   1.533       .  S
C225        C230   1.529       .  S
C225        C229   1.532       .  S
C227        H228   1.110       .  S
C227        C233   1.536       .  S
C227        C232   1.534       .  S
C227        C234   1.530       .  S
C229        C232   1.375       .  D
C229        C399   1.479       .  S
C230        C233   1.376       .  D
C230        C471   1.469       .  S
C231        C234   1.373       .  D
C231        C360   1.479       .  S
C232        C414   1.475       .  S
C233        C435   1.486       .  S
C234        C381   1.473       .  S
C235        H236   1.110       .  S
C235        C241   1.530       .  S
C235        C240   1.540       .  S
C235        C239   1.535       .  S
C237        H238   1.111       .  S
C237        C243   1.529       .  S
C237        C242   1.534       .  S
C237        C244   1.537       .  S
C239        C242   1.376       .  D
C239        C327   1.476       .  S
C240        C243   1.376       .  D
C240        C291   1.489       .  S
C241        C244   1.373       .  D
C241        C453   1.471       .  S
C242        C345   1.480       .  S
C243        C309   1.473       .  S
C244        C489   1.480       .  S
C245        C246   1.405       .  A
C245        C250   1.407   1_545  A
C245        C597   1.476       .  S
C246        C247   1.406       .  A
C246        H251   1.083       .  S
C247        C248   1.404       .  A
C247        C396   1.484       .  S
C248        C249   1.399   1_545  A
C248        H252   1.083   1_545  S
C249        C250   1.401       .  A
C249        C342   1.473       .  S
C250        H253   1.084       .  S
C254        C255   1.408       .  A
C254        C259   1.407       .  A
C254        C561   1.480       .  S
C255        C256   1.401       .  A
C255        H260   1.083       .  S
C256        C257   1.397       .  A
C256        C306   1.473       .  S
C257        C258   1.402       .  A
C257        H261   1.083       .  S
C258        C259   1.405       .  A
C258        C363   1.478       .  S
C259        H262   1.083       .  S
C263        C264   1.410       .  A
C263        C268   1.404       .  A
C263        C504   1.476       .  S
C264        C265   1.410       .  A
C264        H269   1.083       .  S
C265        C266   1.405       .  A
C265        C288   1.488       .  S
C266        C267   1.397       .  A
C266        H270   1.083       .  S
C267        C268   1.396       .  A
C267        C378   1.466       .  S
C268        H271   1.084       .  S
C272        C273   1.408   1_565  A
C272        C277   1.409       .  A
C272        C522   1.479       .  S
C273        C274   1.397       .  A
C273        H278   1.083       .  S
C274        C275   1.393       .  A
C274        C417   1.467       .  S
C275        C276   1.401   1_545  A
C275        H279   1.083       .  S
C276        C277   1.408       .  A
C276        C324   1.480       .  S
C277        H280   1.083       .  S
C281        C286   1.383       .  A
C281        C282   1.400       .  A
C281        N287   1.339       .  A
C282        C283   1.398       .  A
C282        H293   1.083       .  S
C283        C292   1.372       .  A
C283        C284   1.382       .  A
C284        C285   1.409       .  A
C284        N290   1.347       .  A
C285        C286   1.408       .  A
C285        H294   1.082       .  S
C286        C289   1.385       .  A
N287        C288   1.357       .  A
N287        H297   1.044       .  S
C288        C289   1.401       .  A
C289        H295   1.082       .  S
N290        C291   1.359       .  A
N290        H298   1.044       .  S
C291        C292   1.396       .  A
C292        H296   1.081       .  S
C299        C304   1.385       .  A
C299        C300   1.404       .  A
C299        N305   1.344       .  A
C300        C301   1.402       .  A
C300        H311   1.082       .  S
C301        C310   1.378       .  A
C301        C302   1.385       .  A
C302        C303   1.403       .  A
C302        N308   1.343       .  A
C303        C304   1.403       .  A
C303        H312   1.082       .  S
C304        C307   1.378       .  A
N305        C306   1.355       .  A
N305        H315   1.045       .  S
C306        C307   1.396       .  A
C307        H313   1.082       .  S
N308        C309   1.354       .  A
N308        H316   1.045       .  S
C309        C310   1.393       .  A
C310        H314   1.082       .  S
C317        C322   1.383       .  A
C317        C318   1.399       .  A
C317        N323   1.336       .  A
C318        C319   1.395       .  A
C318        H329   1.082       .  S
C319        C328   1.374       .  A
C319        C320   1.383       .  A
C320        C321   1.406       .  A
C320        N326   1.341       .  A
C321        C322   1.404       .  A
C321        H330   1.082       .  S
C322        C325   1.383       .  A
N323        C324   1.356       .  A
N323        H333   1.044       .  S
C324        C325   1.399       .  A
C325        H331   1.082       .  S
N326        C327   1.357       .  A
N326        H334   1.042       .  S
C327        C328   1.392       .  A
C328        H332   1.082       .  S
C335        C340   1.385       .  A
C335        C336   1.407       .  A
C335        N341   1.346       .  A
C336        C337   1.406       .  A
C336        H347   1.082       .  S
C337        C346   1.382       .  A
C337        C338   1.385       .  A
C338        C339   1.402       .  A
C338        N344   1.343       .  A
C339        C340   1.402       .  A
C339        H348   1.082       .  S
C340        C343   1.377       .  A
N341        C342   1.356       .  A
N341        H351   1.045       .  S
C342        C343   1.394       .  A
C343        H349   1.082       .  S
N344        C345   1.353       .  A
N344        H352   1.045       .  S
C345        C346   1.397       .  A
C346        H350   1.082       .  S
C353        C358   1.384       .  A
C353        C354   1.406       .  A
C353        N359   1.345       .  A
C354        C355   1.406       .  A
C354        H365   1.082       .  S
C355        C364   1.382       .  A
C355        C356   1.384       .  A
C356        C357   1.398       .  A
C356        N362   1.337       .  A
C357        C358   1.396       .  A
C357        H366   1.083       .  S
C358        C361   1.370       .  A
N359        C360   1.357       .  A
N359        H369   1.044       .  S
C360        C361   1.394       .  A
C361        H367   1.082       .  S
N362        C363   1.355       .  A
N362        H370   1.044       .  S
C363        C364   1.399       .  A
C364        H368   1.082       .  S
C371        C376   1.386       .  A
C371        C372   1.401       .  A
C371        N377   1.341       .  A
C372        C373   1.399       .  A
C372        H383   1.082       .  S
C373        C382   1.376       .  A
C373        C374   1.385       .  A
C374        C375   1.403       .  A
C374        N380   1.342       .  A
C375        C376   1.403       .  A
C375        H384   1.082       .  S
C376        C379   1.379       .  A
N377        C378   1.353       .  A
N377        H387   1.045       .  S
C378        C379   1.393       .  A
C379        H385   1.082       .  S
N380        C381   1.355       .  A
N380        H388   1.045       .  S
C381        C382   1.391       .  A
C382        H386   1.082       .  S
C389        C394   1.383       .  A
C389        C390   1.399       .  A
C389        N395   1.339       .  A
C390        C391   1.397       .  A
C390        H401   1.083       .  S
C391        C400   1.371       .  A
C391        C392   1.383       .  A
C392        C393   1.405       .  A
C392        N398   1.344       .  A
C393        C394   1.405       .  A
C393        H402   1.082       .  S
C394        C397   1.380       .  A
N395        C396   1.357       .  A
N395        H405   1.044       .  S
C396        C397   1.400       .  A
C397        H403   1.082       .  S
N398        C399   1.357       .  A
N398        H406   1.044       .  S
C399        C400   1.395       .  A
C400        H404   1.082       .  S
C407        C412   1.385       .  A
C407        C408   1.404       .  A
C407        N413   1.343       .  A
C408        C409   1.403       .  A
C408        H419   1.082       .  S
C409        C418   1.379       .  A
C409        C410   1.385       .  A
C410        C411   1.401       .  A
C410        N416   1.341       .  A
C411        C412   1.400       .  A
C411        H420   1.082       .  S
C412        C415   1.376       .  A
N413        C414   1.356       .  A
N413        H423   1.045       .  S
C414        C415   1.391       .  A
C415        H421   1.082       .  S
N416        C417   1.353       .  A
N416        H424   1.045       .  S
C417        C418   1.394       .  A
C418        H422   1.082       .  S
C425        C430   1.384       .  A
C425        C426   1.399       .  A
C425        N431   1.338       .  A
C426        C427   1.397       .  A
C426        H437   1.083       .  S
C427        C436   1.371       .  A
C427        C428   1.382       .  A
C428        C429   1.407       .  A
C428        N434   1.345       .  A
C429        C430   1.406       .  A
C429        H438   1.082       .  S
C430        C433   1.383       .  A
N431        C432   1.355       .  A
N431        H441   1.045       .  S
C432        C433   1.399       .  A
C433        H439   1.082       .  S
N434        C435   1.358       .  A
N434        H442   1.044       .  S
C435        C436   1.396       .  A
C436        H440   1.081       .  S
C443        C448   1.386       .  A
C443        C444   1.399       .  A
C443        N449   1.341       .  A
C444        C445   1.398       .  A
C444        H455   1.083       .  S
C445        C454   1.372       .  A
C445        C446   1.385       .  A
C446        C447   1.404       .  A
C446        N452   1.344       .  A
C447        C448   1.404       .  A
C447        H456   1.082       .  S
C448        C451   1.378       .  A
N449        C450   1.353       .  A
N449        H459   1.045       .  S
C450        C451   1.394       .  A
C451        H457   1.082       .  S
N452        C453   1.355       .  A
N452        H460   1.045       .  S
C453        C454   1.390       .  A
C454        H458   1.079       .  S
C461        C466   1.386       .  A
C461        C462   1.401       .  A
C461        N467   1.341       .  A
C462        C463   1.399       .  A
C462        H473   1.082       .  S
C463        C472   1.376       .  A
C463        C464   1.386       .  A
C464        C465   1.402       .  A
C464        N470   1.341       .  A
C465        C466   1.401       .  A
C465        H474   1.082       .  S
C466        C469   1.378       .  A
N467        C468   1.354       .  A
N467        H477   1.045       .  S
C468        C469   1.392       .  A
C469        H475   1.082       .  S
N470        C471   1.354       .  A
N470        H478   1.045       .  S
C471        C472   1.390       .  A
C472        H476   1.082       .  S
C479        C484   1.384       .  A
C479        C480   1.402       .  A
C479        N485   1.341       .  A
C480        C481   1.400       .  A
C480        H491   1.083       .  S
C481        C490   1.374       .  A
C481        C482   1.384       .  A
C482        C483   1.403       .  A
C482        N488   1.343       .  A
C483        C484   1.402       .  A
C483        H492   1.082       .  S
C484        C487   1.377       .  A
N485        C486   1.357       .  A
N485        H495   1.044       .  S
C486        C487   1.397       .  A
C487        H493   1.082       .  S
N488        C489   1.355       .  A
N488        H496   1.044       .  S
C489        C490   1.396       .  A
C490        H494   1.081       .  S
C497        C502   1.385       .  A
C497        C498   1.404       .  A
C497        N503   1.345       .  A
C498        C499   1.403       .  A
C498        H509   1.082       .  S
C499        C508   1.378       .  A
C499        C500   1.385       .  A
C500        C501   1.404       .  A
C500        N506   1.345       .  A
C501        C502   1.404       .  A
C501        H510   1.082       .  S
C502        C505   1.378       .  A
N503        C504   1.355       .  A
N503        H513   1.045       .  S
C504        C505   1.397       .  A
C505        H511   1.082       .  S
N506        C507   1.355       .  A
N506        H514   1.045       .  S
C507        C508   1.395       .  A
C508        H512   1.082       .  S
C515        C520   1.384   1_565  A
C515        C516   1.407       .  A
C515        N521   1.346       .  A
C516        C517   1.407       .  A
C516        H527   1.082       .  S
C517        C526   1.384       .  A
C517        C518   1.384       .  A
C518        C519   1.401   1_565  A
C518        N524   1.340   1_565  A
C519        C520   1.399       .  A
C519        H528   1.083       .  S
C520        C523   1.374       .  A
N521        C522   1.358       .  A
N521        H531   1.045       .  S
C522        C523   1.394   1_565  A
C523        H529   1.082       .  S
N524        C525   1.355   1_545  A
N524        H532   1.045       .  S
C525        C526   1.398       .  A
C526        H530   1.082       .  S
C533        C538   1.384       .  A
C533        C534   1.399   1_655  A
C533        N539   1.339   1_655  A
C534        C535   1.397   1_455  A
C534        H545   1.083       .  S
C535        C544   1.371   1_655  A
C535        C536   1.385       .  A
C536        C537   1.406       .  A
C536        N542   1.346       .  A
C537        C538   1.405       .  A
C537        H546   1.082       .  S
C538        C541   1.381       .  A
N539        C540   1.355   1_455  A
N539        H549   1.045       .  S
C540        C541   1.397       .  A
C541        H547   1.082       .  S
N542        C543   1.356       .  A
N542        H550   1.045       .  S
C543        C544   1.393   1_655  A
C544        H548   1.083       .  S
C551        C556   1.385       .  A
C551        C552   1.403       .  A
C551        N557   1.346       .  A
C552        C553   1.403       .  A
C552        H563   1.082       .  S
C553        C562   1.377       .  A
C553        C554   1.384       .  A
C554        C555   1.403       .  A
C554        N560   1.344       .  A
C555        C556   1.403       .  A
C555        H564   1.083       .  S
C556        C559   1.376       .  A
N557        C558   1.355       .  A
N557        H567   1.044       .  S
C558        C559   1.397       .  A
C559        H565   1.083       .  S
N560        C561   1.357       .  A
N560        H568   1.045       .  S
C561        C562   1.396       .  A
C562        H566   1.082       .  S
C569        C574   1.384   1_455  A
C569        C570   1.401       .  A
C569        N575   1.340       .  A
C570        C571   1.399       .  A
C570        H581   1.082       .  S
C571        C580   1.375       .  A
C571        C572   1.385   1_455  A
C572        C573   1.405       .  A
C572        N578   1.345       .  A
C573        C574   1.405       .  A
C573        H582   1.082       .  S
C574        C577   1.380       .  A
N575        C576   1.356   1_455  A
N575        H585   1.044       .  S
C576        C577   1.399       .  A
C577        H583   1.082       .  S
N578        C579   1.355   1_655  A
N578        H586   1.045       .  S
C579        C580   1.392       .  A
C580        H584   1.083       .  S
C587        C592   1.385       .  A
C587        C588   1.405       .  A
C587        N593   1.347       .  A
C588        C589   1.406       .  A
C588        H599   1.082       .  S
C589        C598   1.379       .  A
C589        C590   1.385       .  A
C590        C591   1.401       .  A
C590        N596   1.343       .  A
C591        C592   1.401       .  A
C591        H600   1.083   1_545  S
C592        C595   1.372       .  A
N593        C594   1.356       .  A
N593        H603   1.045       .  S
C594        C595   1.395       .  A
C595        H601   1.083   1_545  S
N596        C597   1.354       .  A
N596        H604   1.045   1_545  S
C597        C598   1.397       .  A
C598        H602   1.082       .  S
C605        C610   1.384       .  A
C605        C606   1.411       .  A
C605        N611   1.353       .  A
C606        C607   1.412       .  A
C606        H617   1.082       .  S
C607        C616   1.386       .  A
C607        C608   1.385       .  A
C608        C609   1.400       .  A
C608        N614   1.343       .  A
C609        C610   1.400       .  A
C609        H618   1.083       .  S
C610        C613   1.371       .  A
N611        C612   1.360       .  A
N611        H621   1.044       .  S
C612        C613   1.396       .  A
C613        H619   1.082       .  S
N614        C615   1.354       .  A
N614        H622   1.045       .  S
C615        C616   1.400       .  A
C616        H620   1.082       .  S
C623        C628   1.385   1_545  A
C623        C624   1.400       .  A
C623        N629   1.342       .  A
C624        C625   1.400       .  A
C624        H635   1.083       .  S
C625        C634   1.371       .  A
C625        C626   1.385   1_545  A
C626        C627   1.404       .  A
C626        N632   1.347       .  A
C627        C628   1.404       .  A
C627        H636   1.082       .  S
C628        C631   1.377       .  A
N629        C630   1.355       .  A
N629        H639   1.045       .  S
C630        C631   1.396   1_545  A
C631        H637   1.082       .  S
N632        C633   1.356   1_565  A
N632        H640   1.045       .  S
C633        C634   1.395       .  A
C634        H638   1.083       .  S
C641        C646   1.385   1_455  A
C641        C642   1.402       .  A
C641        N647   1.343       .  A
C642        C643   1.401       .  A
C642        H653   1.082       .  S
C643        C652   1.377       .  A
C643        C644   1.384   1_455  A
C644        C645   1.405       .  A
C644        N650   1.344       .  A
C645        C646   1.404       .  A
C645        H654   1.082       .  S
C646        C649   1.379       .  A
N647        C648   1.354   1_455  A
N647        H657   1.045       .  S
C648        C649   1.395       .  A
C649        H655   1.082       .  S
N650        C651   1.357   1_655  A
N650        H658   1.045       .  S
C651        C652   1.396       .  A
C652        H656   1.082       .  S
C659        C664   1.384       .  A
C659        C660   1.400   1_545  A
C659        N665   1.339       .  A
C660        C661   1.398   1_565  A
C660        H671   1.082       .  S
C661        C670   1.375   1_545  A
C661        C662   1.384       .  A
C662        C663   1.407       .  A
C662        N668   1.344       .  A
C663        C664   1.405       .  A
C663        H672   1.082       .  S
C664        C667   1.384       .  A
N665        C666   1.354       .  A
N665        H675   1.045   1_545  S
C666        C667   1.397       .  A
C667        H673   1.082       .  S
N668        C669   1.358       .  A
N668        H676   1.044       .  S
C669        C670   1.395   1_545  A
C670        H674   1.082       .  S
C677        C682   1.384       .  A
C677        C678   1.410       .  A
C677        N683   1.351       .  A
C678        C679   1.410       .  A
C678        H689   1.082       .  S
C679        C688   1.386       .  A
C679        C680   1.384       .  A
C680        C681   1.399       .  A
C680        N686   1.340       .  A
C681        C682   1.398       .  A
C681        H690   1.083   1_455  S
C682        C685   1.371       .  A
N683        C684   1.359       .  A
N683        H693   1.044       .  S
C684        C685   1.393       .  A
C685        H691   1.083   1_455  S
N686        C687   1.355       .  A
N686        H694   1.045   1_455  S
C687        C688   1.401       .  A
C688        H692   1.082       .  S
C695        C700   1.383       .  A
C695        C696   1.400       .  A
C695        N701   1.338       .  A
C696        C697   1.397       .  A
C696        H707   1.083       .  S
C697        C706   1.373       .  A
C697        C698   1.384       .  A
C698        C699   1.407       .  A
C698        N704   1.345       .  A
C699        C700   1.406       .  A
C699        H708   1.082       .  S
C700        C703   1.383       .  A
N701        C702   1.357       .  A
N701        H711   1.044       .  S
C702        C703   1.399       .  A
C703        H709   1.082       .  S
N704        C705   1.356       .  A
N704        H712   1.044       .  S
C705        C706   1.393       .  A
C706        H710   1.082       .  S
C713        C718   1.385       .  A
C713        C714   1.403       .  A
C713        N719   1.344       .  A
C714        C715   1.403       .  A
C714        H725   1.082       .  S
C715        C724   1.378       .  A
C715        C716   1.385       .  A
C716        C717   1.403       .  A
C716        N722   1.344       .  A
C717        C718   1.402       .  A
C717        H726   1.082       .  S
C718        C721   1.376       .  A
N719        C720   1.354       .  A
N719        H729   1.045       .  S
C720        C721   1.396       .  A
C721        H727   1.082       .  S
N722        C723   1.354       .  A
N722        H730   1.045       .  S
C723        C724   1.394       .  A
C724        H728   1.082       .  S
C731        C736   1.385       .  A
C731        C732   1.403       .  A
C731        N737   1.344       .  A
C732        C733   1.402       .  A
C732        H743   1.082       .  S
C733        C742   1.376       .  A
C733        C734   1.385       .  A
C734        C735   1.400       .  A
C734        N740   1.342       .  A
C735        C736   1.400       .  A
C735        H744   1.082       .  S
C736        C739   1.374       .  A
N737        C738   1.354       .  A
N737        H747   1.045       .  S
C738        C739   1.392       .  A
C739        H745   1.082       .  S
N740        C741   1.352       .  A
N740        H748   1.044       .  S
C741        C742   1.395       .  A
C742        H746   1.082       .  S
C749        C754   1.384       .  A
C749        C750   1.400       .  A
C749        N755   1.340       .  A
C750        C751   1.399       .  A
C750        H761   1.083       .  S
C751        C760   1.372       .  A
C751        C752   1.383       .  A
C752        C753   1.405       .  A
C752        N758   1.345       .  A
C753        C754   1.404       .  A
C753        H762   1.082       .  S
C754        C757   1.379       .  A
N755        C756   1.355       .  A
N755        H765   1.044       .  S
C756        C757   1.395       .  A
C757        H763   1.081       .  S
N758        C759   1.358       .  A
N758        H766   1.044       .  S
C759        C760   1.397       .  A
C760        H764   1.082       .  S
C767        C772   1.385       .  A
C767        C768   1.401       .  A
C767        N773   1.342       .  A
C768        C769   1.401       .  A
C768        H779   1.082       .  S
C769        C778   1.375       .  A
C769        C770   1.385       .  A
C770        C771   1.405       .  A
C770        N776   1.346       .  A
C771        C772   1.404       .  A
C771        H780   1.082       .  S
C772        C775   1.379       .  A
N773        C774   1.352       .  A
N773        H783   1.044       .  S
C774        C775   1.395       .  A
C775        H781   1.082       .  S
N776        C777   1.356       .  A
N776        H784   1.045       .  S
C777        C778   1.393       .  A
C778        H782   1.082       .  S
C785        C790   1.384       .  A
C785        C786   1.398       .  A
C785        N791   1.338       .  A
C786        C787   1.398       .  A
C786        H797   1.083       .  S
C787        C796   1.370       .  A
C787        C788   1.383       .  A
C788        C789   1.405       .  A
C788        N794   1.345       .  A
C789        C790   1.404       .  A
C789        H798   1.082       .  S
C790        C793   1.379       .  A
N791        C792   1.354       .  A
N791        H801   1.044       .  S
C792        C793   1.395       .  A
C793        H799   1.082       .  S
N794        C795   1.359       .  A
N794        H802   1.044       .  S
C795        C796   1.397       .  A
C796        H800   1.082       .  S
C803        C808   1.384       .  A
C803        C804   1.403       .  A
C803        N809   1.343       .  A
C804        C805   1.402       .  A
C804        H815   1.082       .  S
C805        C814   1.378       .  A
C805        C806   1.385       .  A
C806        C807   1.404       .  A
C806        N812   1.344       .  A
C807        C808   1.403       .  A
C807        H816   1.082       .  S
C808        C811   1.379       .  A
N809        C810   1.354       .  A
N809        H819   1.043       .  S
C810        C811   1.396       .  A
C811        H817   1.082       .  S
N812        C813   1.355       .  A
N812        H820   1.045       .  S
C813        C814   1.394       .  A
C814        H818   1.082       .  S
C821        C826   1.383       .  A
C821        C822   1.407       .  A
C821        N827   1.348       .  A
C822        C823   1.407       .  A
C822        H833   1.082       .  S
C823        C832   1.381       .  A
C823        C824   1.384       .  A
C824        C825   1.402       .  A
C824        N830   1.344       .  A
C825        C826   1.403       .  A
C825        H834   1.083       .  S
C826        C829   1.374       .  A
N827        C828   1.359       .  A
N827        H837   1.044       .  S
C828        C829   1.400       .  A
C829        H835   1.082       .  S
N830        C831   1.356       .  A
N830        H838   1.044       .  S
C831        C832   1.396       .  A
C832        H836   1.081       .  S
C839        C844   1.385       .  A
C839        C840   1.403       .  A
C839        N845   1.343       .  A
C840        C841   1.402       .  A
C840        H851   1.083       .  S
C841        C850   1.378       .  A
C841        C842   1.385       .  A
C842        C843   1.402       .  A
C842        N848   1.342       .  A
C843        C844   1.401       .  A
C843        H852   1.082       .  S
C844        C847   1.377       .  A
N845        C846   1.355       .  A
N845        H855   1.045       .  S
C846        C847   1.392       .  A
C847        H853   1.082       .  S
N848        C849   1.355       .  A
N848        H856   1.044       .  S
C849        C850   1.393       .  A
C850        H854   1.081       .  S
C857        C862   1.383       .  A
C857        C858   1.405       .  A
C857        N863   1.347       .  A
C858        C859   1.406       .  A
C858        H869   1.082       .  S
C859        C868   1.378       .  A
C859        C860   1.384       .  A
C860        C861   1.399       .  A
C860        N866   1.341       .  A
C861        C862   1.399       .  A
C861        H870   1.082       .  S
C862        C865   1.369       .  A
N863        C864   1.359       .  A
N863        H873   1.044       .  S
C864        C865   1.397       .  A
C865        H871   1.082       .  S
N866        C867   1.355       .  A
N866        H874   1.044       .  S
C867        C868   1.397       .  A
C868        H872   1.080       .  S
C875        C880   1.385       .  A
C875        C876   1.399       .  A
C875        N881   1.340       .  A
C876        C877   1.398       .  A
C876        H887   1.082       .  S
C877        C886   1.373       .  A
C877        C878   1.384       .  A
C878        C879   1.407       .  A
C878        N884   1.347       .  A
C879        C880   1.407       .  A
C879        H888   1.082       .  S
C880        C883   1.384       .  A
N881        C882   1.354       .  A
N881        H891   1.045       .  S
C882        C883   1.398       .  A
C883        H889   1.082       .  S
N884        C885   1.357       .  A
N884        H892   1.045       .  S
C885        C886   1.392       .  A
C886        H890   1.083       .  S
C893        C898   1.386       .  A
C893        C894   1.402       .  A
C893        N899   1.342       .  A
C894        C895   1.401       .  A
C894        H905   1.082       .  S
C895        C904   1.376       .  A
C895        C896   1.386       .  A
C896        C897   1.402       .  A
C896        N902   1.342       .  A
C897        C898   1.401       .  A
C897        H906   1.082       .  S
C898        C901   1.377       .  A
N899        C900   1.353       .  A
N899        H909   1.045       .  S
C900        C901   1.392       .  A
C901        H907   1.082       .  S
N902        C903   1.352       .  A
N902        H910   1.045       .  S
C903        C904   1.392       .  A
C904        H908   1.082       .  S
C911        C916   1.383       .  A
C911        C912   1.408       .  A
C911        N917   1.347       .  A
C912        C913   1.407       .  A
C912        H923   1.082       .  S
C913        C922   1.383       .  A
C913        C914   1.383       .  A
C914        C915   1.400       .  A
C914        N920   1.339       .  A
C915        C916   1.399       .  A
C915        H924   1.083       .  S
C916        C919   1.373       .  A
N917        C918   1.359       .  A
N917        H927   1.044       .  S
C918        C919   1.397       .  A
C919        H925   1.082       .  S
N920        C921   1.356       .  A
N920        H928   1.044       .  S
C921        C922   1.398       .  A
C922        H926   1.082       .  S
