geometry optimzed in LAMMPS
_audit_creation_date              2020-11-30 
_audit_creation_method            'lammps2cif' 
_symmetry_space_group_name_H-M    'P1' 
_symmetry_Int_Tables_number       1 
_symmetry_cell_setting            triclinic 
loop_ 
_symmetry_equiv_pos_as_xyz 
  x,y,z 
_cell_length_a                    38.03089806 
_cell_length_b                    37.956835661949285 
_cell_length_c                    41.91561479254325 
_cell_angle_alpha                 89.71140462605281 
_cell_angle_beta                  90.01959653722238 
_cell_angle_gamma                 119.81789396083589 
loop_ 
_atom_site_label 
_atom_site_type_symbol 
_atom_site_fract_x 
_atom_site_fract_y 
_atom_site_fract_z 
_atom_site_charge 
C1          C  0.22817348  0.20362179  0.15117499     0.79200
N2          N  0.25692789  0.23728178  0.16610535    -0.79100
C3          C  0.28423057  0.27017550  0.14919175     0.81600
N4          N  0.28329019  0.26863826  0.11676070    -0.79100
C5          C  0.25476718  0.23482549  0.10140059     0.81700
N6          N  0.22675117  0.20276393  0.11881018    -0.80800
C7          C  0.22655496  0.20725829  0.41266582     0.79200
N8          N  0.25566601  0.24159050  0.39831864    -0.79100
C9          C  0.28291018  0.27351677  0.41572817     0.81600
N10         N  0.28122597  0.27093017  0.44796395    -0.79100
C11         C  0.25174631  0.23731809  0.46292775     0.81700
N12         N  0.22443882  0.20523233  0.44515795    -0.80800
C13         C  0.26195469  0.49953130  0.15151663     0.79200
N14         N  0.26164635  0.49791075  0.11916026    -0.79100
C15         C  0.22855802  0.49257134  0.10262508     0.81600
N16         N  0.19548552  0.48814057  0.11873389    -0.79100
C17         C  0.19520490  0.48882658  0.15114292     0.81700
N18         N  0.22882726  0.49516694  0.16716076    -0.80800
C19         C  0.25753618  0.49376510  0.41485473     0.79200
N20         N  0.26038340  0.49687549  0.44718917    -0.79100
C21         C  0.22946679  0.49574449  0.46454448     0.81600
N22         N  0.19562653  0.49079320  0.44939556    -0.79100
C23         C  0.19257376  0.48783703  0.41717845     0.81700
N24         N  0.22366740  0.48913163  0.40031785    -0.80800
C25         C  0.45675258  0.22159437  0.15117551     0.79200
N26         N  0.46068852  0.22443866  0.11885495    -0.79100
C27         C  0.46379500  0.19543589  0.10205312     0.81600
N28         N  0.46332709  0.16382462  0.11790882    -0.79100
C29         C  0.45973703  0.16098960  0.15014059     0.81700
N30         N  0.45675071  0.19011615  0.16656408    -0.80800
C31         C  0.46904365  0.22561890  0.41413797     0.79200
N32         N  0.47561251  0.19787118  0.39912188    -0.79100
C33         C  0.48160260  0.17073331  0.41603326     0.81600
N34         N  0.47948273  0.17058218  0.44837663    -0.79100
C35         C  0.47229200  0.19784260  0.46379850     0.81700
N36         N  0.46802443  0.22600721  0.44656978    -0.80800
O37         O  0.40082262  0.01691751  0.24963258    -0.89200
C38         C  0.10872111  0.08707637  0.32647642     1.10800
O39         O  0.44422043  0.47620614  0.28269327    -1.37000
O40         O  0.07929545  0.09207408  0.24409838    -0.90700
O41         O  0.36527929  0.44952765  0.24430769    -0.91400
O42         O  0.44060023  0.43153633  0.21485165    -0.80200
O43         O  0.48957212  0.05387403  0.25322642    -1.02300
C44         C  0.05615424  0.46886304  0.22391397     1.20900
O45         O  0.48092897  0.42841613  0.28236595    -1.37200
Mn46       Mn  0.48505197  0.47249451  0.31718305     1.82100
O47         O  0.02593099  0.47099126  0.21447561    -0.79200
O48         O  0.11152678  0.05640792  0.24727411    -0.88600
C49         C  0.05639623  0.46721505  0.34003419     1.12000
C50         C  0.10673721  0.08442016  0.23503884     1.06700
O51         O  0.44099580  0.43236352  0.34986903    -0.80200
O52         O  0.02840749  0.01300037  0.28213604    -1.33900
O53         O  0.40158079  0.39735774  0.31256940    -0.99400
C54         C  0.47322173  0.34841384  0.23664665     1.05400
Mn55       Mn  0.08356069  0.01175384  0.28242677     1.48600
O56         O  0.44103176  0.34534598  0.24850357    -0.88600
Mn57       Mn  0.38499979  0.42551845  0.28153634     1.49600
O58         O  0.40200214  0.01585679  0.32031052    -0.92500
C59         C  0.48713304  0.04841722  0.22465475     1.18600
C60         C  0.37072400  0.48282509  0.32809853     1.10100
Mn61       Mn  0.48432360  0.47275207  0.24741988     1.81000
O62         O  0.05956986  0.46576437  0.31144294    -0.97600
Mn63       Mn  0.44550944  0.03277091  0.28401198     1.49300
C64         C  0.37348528  0.48529966  0.23625994     1.07200
Mn65       Mn  0.03180775  0.41999880  0.28189911     1.49900
C66         C  0.47440363  0.34882953  0.32913106     1.10100
O67         O  0.40268323  0.39678357  0.25284440    -1.03400
O68         O  0.11139525  0.05619200  0.31827682    -0.93100
C69         C  0.40847396  0.40103227  0.22418028     1.21400
O70         O  0.05959876  0.46653316  0.25256494    -1.03800
O71         O  0.08218263  0.09465996  0.31520635    -0.91200
O72         O  0.00910317  0.37446173  0.31782751    -0.90800
O73         O  0.36229552  0.44887431  0.31597948    -0.90800
Mn74       Mn  0.03619839  0.07192998  0.28131658     1.47900
O75         O  0.02641878  0.46945470  0.34993059    -0.79300
C76         C  0.40778689  0.40300265  0.34115387     1.14400
O77         O  0.48540247  0.01638183  0.21486438    -0.78100
O78         O  0.48929298  0.01634295  0.34997243    -0.77700
Mn79       Mn  0.42437389  0.37347497  0.28335319     1.51100
O80         O  0.00862738  0.37512219  0.24583585    -0.90000
O81         O  0.49216013  0.05513275  0.31258140    -0.97500
O82         O  0.44152719  0.34633830  0.31931097    -0.92600
C83         C  0.49193897  0.04913399  0.34114605     1.12200
C84         C  0.48944475  0.14107861  0.39917549    -0.07100
C85         C  0.47262602  0.10127424  0.41124310    -0.18300
C86         C  0.47413568  0.07060998  0.39374036     0.10100
C87         C  0.49327349  0.07993785  0.36347406    -0.07100
C88         C  0.01233077  0.12041834  0.35255790    -0.18300
C89         C  0.01130154  0.15098816  0.37009846     0.10100
S90         S  0.44893731  0.02012891  0.41057413    -0.33300
S91         S  0.03922379  0.20189161  0.35411611    -0.33300
H92         H  0.05193530  0.22067574  0.38403354     0.28100
H93         H  0.42850493  0.50139497  0.38279229     0.28100
H94         H  0.45626905  0.09340882  0.43369268     0.18700
H95         H  0.02820164  0.12838822  0.32986911     0.18700
C96         C  0.46628046  0.25693126  0.39505216    -0.07100
C97         C  0.49577088  0.29749582  0.39968744    -0.18300
C98         C  0.49880690  0.32824701  0.37935119     0.10100
C99         C  0.47138653  0.31868676  0.35358385    -0.07100
C100        C  0.44071968  0.27797251  0.34987001    -0.18300
C101        C  0.43803935  0.24713168  0.37007526     0.10100
S102        S  0.53850515  0.37855616  0.38826661    -0.33300
S103        S  0.39828312  0.19585110  0.36248748    -0.33300
H104        H  0.39432988  0.18203752  0.39418958     0.28100
H105        H  0.51764613  0.39786993  0.37732038     0.28100
H106        H  0.51763722  0.30515968  0.41875565     0.18700
H107        H  0.41933812  0.26982549  0.33039959     0.18700
C108        C  0.46585681  0.13074045  0.16789772    -0.07100
C109        C  0.99199571  0.14495017  0.19406714    -0.18300
C110        C  0.00070363  0.11925825  0.21209707     0.10100
C111        C  0.48313409  0.07774438  0.20360440    -0.07100
C112        C  0.45759162  0.06356583  0.17683552    -0.18300
C113        C  0.44812403  0.08939974  0.15930299     0.10100
S114        S  0.03511964  0.14078031  0.24544679    -0.33300
S115        S  0.41120634  0.06723100  0.12788027    -0.33300
H116        H  0.39404910  0.09220801  0.13250494     0.28100
H117        H  0.04351938  0.18111579  0.24207251     0.28100
H118        H  0.00609962  0.17676280  0.20026268     0.18700
H119        H  0.44316747  0.03173339  0.17059419     0.18700
C120        C  0.45718102  0.25455493  0.17015380    -0.07100
C121        C  0.98928785  0.29423173  0.16572387    -0.18300
C122        C  0.99528045  0.32572303  0.18635442     0.10100
C123        C  0.46820962  0.31771712  0.21222464    -0.07100
C124        C  0.43497372  0.27811134  0.21562928    -0.18300
C125        C  0.42925490  0.24667174  0.19512049     0.10100
S126        S  0.03817878  0.37481771  0.17805054    -0.33300
S127        S  0.38588564  0.19710492  0.20230058    -0.33300
H128        H  0.38057266  0.18440205  0.17033633     0.28100
H129        H  0.01897918  0.39653611  0.18711595     0.28100
H130        H  0.01092063  0.30047224  0.14667022     0.18700
H131        H  0.41363104  0.27116775  0.23503193     0.18700
C132        C  0.46921476  0.19686567  0.49909388    -0.07100
C133        C  0.98859455  0.23355668  0.01592244    -0.18300
C134        C  0.98849482  0.23421177  0.04939958     0.10100
C135        C  0.46739959  0.19750951  0.06672656    -0.07100
C136        C  0.44802477  0.16089451  0.04975114    -0.18300
C137        C  0.44877147  0.16026085  0.01642477     0.10100
S138        S  0.01859019  0.28274698  0.06834007    -0.33300
S139        S  0.42075661  0.11138627  0.99757912    -0.33300
H140        H  0.40528699  0.12486757  0.47275594     0.28100
H141        H  0.03312208  0.26773640  0.09271857     0.28100
H142        H  0.00523307  0.26194483  0.00291791     0.18700
H143        H  0.43115793  0.13236544  0.06254331     0.18700
C144        C  0.28824839  0.49066444  0.39515460    -0.07100
C145        C  0.27406970  0.45855822  0.37337181    -0.18300
C146        C  0.29992583  0.45526973  0.35143852     0.10100
C147        C  0.34199096  0.48399723  0.35171299    -0.07100
C148        C  0.35611592  0.01585818  0.37393181    -0.18300
C149        C  0.32976747  0.01973470  0.39526984     0.10100
S150        S  0.27612578  0.41566698  0.32211526    -0.33300
S151        S  0.35086382  0.06409610  0.42016636    -0.33300
H152        H  0.31690495  0.06949582  0.41874306     0.28100
H153        H  0.29585982  0.44167017  0.29606238     0.28100
H154        H  0.24198604  0.43644597  0.37261960     0.18700
H155        H  0.38787287  0.03887136  0.37397808     0.18700
C156        C  0.08916346  0.46965861  0.36100030    -0.07100
C157        C  0.09403580  0.98549843  0.39193170    -0.18300
C158        C  0.12615240  0.99043299  0.41157413     0.10100
C159        C  0.15516949  0.48046093  0.39983805    -0.07100
C160        C  0.14912345  0.46328411  0.36935169    -0.18300
C161        C  0.11689730  0.45760825  0.34997686     0.10100
S162        S  0.12882404  0.01069886  0.45074624    -0.33300
S163        S  0.11104047  0.43252130  0.31206959    -0.33300
H164        H  0.15039927  0.43804813  0.31005029     0.28100
H165        H  0.12363438  0.97534938  0.46609084     0.28100
H166        H  0.07295615  0.99455438  0.40080282     0.18700
H167        H  0.16967027  0.45355623  0.36055525     0.18700
C168        C  0.29584892  0.50139055  0.17010269    -0.07100
C169        C  0.31010756  0.47473309  0.16240751    -0.18300
C170        C  0.33677401  0.46987443  0.18266058     0.10100
C171        C  0.34876496  0.49130913  0.21176351    -0.07100
C172        C  0.33645915  0.51985934  0.21829474    -0.18300
C173        C  0.31067955  0.52543879  0.19774481     0.10100
S174        S  0.35514136  0.43699763  0.16940702    -0.33300
S175        S  0.29739703  0.06343348  0.20846692    -0.33300
H176        H  0.29291790  0.07324785  0.17687155     0.28100
H177        H  0.39322522  0.45888588  0.18408199     0.28100
H178        H  0.29949589  0.45666131  0.14092256     0.18700
H179        H  0.34581360  0.03708569  0.24033651     0.18700
C180        C  0.15818403  0.48132387  0.16894535    -0.07100
C181        C  0.13036360  0.99097732  0.15456903    -0.18300
C182        C  0.09572563  0.98569437  0.17089902     0.10100
C183        C  0.08894516  0.47143815  0.20279650    -0.07100
C184        C  0.11611399  0.46077576  0.21658957    -0.18300
C185        C  0.14971885  0.46473231  0.20019032     0.10100
S186        S  0.06241740  0.99862770  0.14991859    -0.33300
S187        S  0.17910129  0.44616077  0.22065134    -0.33300
H188        H  0.18181272  0.42535353  0.19390934     0.28100
H189        H  0.02788692  0.96056430  0.15559967     0.28100
H190        H  0.13584383  0.00307401  0.13048765     0.18700
H191        H  0.11089101  0.44844912  0.24058047     0.18700
C192        C  0.23040806  0.49589269  0.49986329    -0.07100
C193        C  0.19537806  0.46698955  0.01623556    -0.18300
C194        C  0.19438484  0.46429858  0.04954584     0.10100
C195        C  0.22871168  0.49170338  0.06733621    -0.07100
C196        C  0.26367427  0.02008709  0.05098954    -0.18300
C197        C  0.26465178  0.02267054  0.01761783     0.10100
S198        S  0.14921541  0.42376412  0.06764452    -0.33300
S199        S  0.30976053  0.06284697  0.99938859    -0.33300
H200        H  0.28991229  0.07097935  0.47536535     0.28100
H201        H  0.16980058  0.41551506  0.09185259     0.28100
H202        H  0.16886113  0.44625419  0.50289914     0.18700
H203        H  0.29006220  0.04152513  0.06436074     0.18700
C204        C  0.37650331  0.37445586  0.36382098    -0.07100
C205        C  0.33582898  0.35716979  0.35434998    -0.18300
C206        C  0.30453670  0.32640079  0.37212824     0.10100
C207        C  0.31380784  0.31087174  0.39955352    -0.07100
C208        C  0.35398657  0.32994637  0.41045671    -0.18300
C209        C  0.38537918  0.36152745  0.39298140     0.10100
S210        S  0.25341176  0.30919012  0.35893389    -0.33300
S211        S  0.43594455  0.38171035  0.40821895    -0.33300
H212        H  0.45215373  0.38136365  0.37840683     0.28100
H213        H  0.23632393  0.30074411  0.38973072     0.28100
H214        H  0.32825087  0.36760354  0.33268494     0.18700
H215        H  0.36132069  0.31876141  0.43183083     0.18700
C216        C  0.13885862  0.11720060  0.34890857    -0.07100
C217        C  0.15302014  0.10449396  0.37512079    -0.18300
C218        C  0.18153299  0.13279344  0.39655889     0.10100
C219        C  0.19557612  0.17474299  0.39223091    -0.07100
C220        C  0.18127164  0.18710556  0.36608758    -0.18300
C221        C  0.15415470  0.15935237  0.34422215     0.10100
S222        S  0.20033044  0.11377697  0.42775203    -0.33300
S223        S  0.14262358  0.18040546  0.30969270    -0.33300
H224        H  0.14545993  0.15385634  0.28786564     0.28100
H225        H  0.24031909  0.14647663  0.42668401     0.28100
H226        H  0.14222263  0.07242920  0.37871023     0.18700
H227        H  0.19209046  0.21912505  0.36213150     0.18700
C228        C  0.31486349  0.30697897  0.16629843    -0.07100
C229        C  0.35451219  0.32936175  0.15410531    -0.18300
C230        C  0.38574037  0.36077519  0.17175045     0.10100
C231        C  0.37737220  0.37041987  0.20241503    -0.07100
C232        C  0.33721366  0.34922435  0.21368408    -0.18300
C233        C  0.30604971  0.31863536  0.19590012     0.10100
S234        S  0.43564786  0.38562209  0.15444718    -0.33300
S235        S  0.25544206  0.29706986  0.21196658    -0.33300
H236        H  0.23674490  0.29267525  0.18212954     0.28100
H237        H  0.45429193  0.38419745  0.18286267     0.28100
H238        H  0.36170907  0.32114119  0.13129595     0.18700
H239        H  0.32971222  0.35703922  0.23655540     0.18700
C240        C  0.19747158  0.16923346  0.17027018    -0.07100
C241        C  0.15633716  0.15358531  0.16306491    -0.18300
C242        C  0.12585627  0.12453470  0.18280900     0.10100
C243        C  0.13655776  0.11099755  0.21072710    -0.07100
C244        C  0.17774651  0.12522838  0.21695160    -0.18300
C245        C  0.20815073  0.15382055  0.19703356     0.10100
S246        S  0.07423019  0.10559128  0.17055239    -0.33300
S247        S  0.25995065  0.16916101  0.20700018    -0.33300
H248        H  0.27403899  0.17542314  0.17530309     0.28100
H249        H  0.05924356  0.06692059  0.18432075     0.28100
H250        H  0.14785211  0.16481351  0.14231728     0.18700
H251        H  0.18644385  0.11473140  0.23801943     0.18700
C252        C  0.24963612  0.23629112  0.49833674    -0.07100
C253        C  0.23918049  0.19975799  0.01452104    -0.18300
C254        C  0.24131219  0.19836820  0.04790132     0.10100
C255        C  0.25309261  0.23401111  0.06596760    -0.07100
C256        C  0.26243689  0.27008591  0.04979804    -0.18300
C257        C  0.26009415  0.27143929  0.01656667     0.10100
S258        S  0.23121240  0.15080305  0.06554140    -0.33300
S259        S  0.26990177  0.31917434  0.49915030    -0.33300
H260        H  0.23968855  0.30116088  0.47567259     0.28100
H261        H  0.26262748  0.16858711  0.08809246     0.28100
H262        H  0.23121946  0.17257492  0.00096627     0.18700
H263        H  0.27053890  0.29738082  0.06324545     0.18700
C264        C  0.22823418  0.20358881  0.65109425     0.79200
N265        N  0.25697743  0.23720422  0.66606787    -0.79100
C266        C  0.28425105  0.27015309  0.64919595     0.81600
N267        N  0.28331975  0.26870280  0.61676068    -0.79100
C268        C  0.25481396  0.23492102  0.60135785     0.81700
N269        N  0.22680269  0.20282032  0.61873239    -0.80800
C270        C  0.22636654  0.20721376  0.91269896     0.79200
N271        N  0.25548125  0.24156843  0.89838156    -0.79100
C272        C  0.28270679  0.27348166  0.91581263     0.81600
N273        N  0.28099755  0.27085271  0.94804924    -0.79100
C274        C  0.25151613  0.23720693  0.96298518     0.81700
N275        N  0.22422947  0.20513890  0.94518999    -0.80800
C276        C  0.26207693  0.49970796  0.65156106     0.79200
N277        N  0.26179912  0.49810269  0.61919837    -0.79100
C278        C  0.22872069  0.49276554  0.60264088     0.81600
N279        N  0.19564071  0.48832356  0.61873913    -0.79100
C280        C  0.19532113  0.48896536  0.65114422     0.81700
N281        N  0.22892441  0.49530546  0.66718725    -0.80800
C282        C  0.25753781  0.49366900  0.91490683     0.79200
N283        N  0.26033263  0.49673009  0.94724242    -0.79100
C284        C  0.22936364  0.49552054  0.96457081     0.81600
N285        N  0.19552808  0.49053801  0.94940156    -0.79100
C286        C  0.19253934  0.48764581  0.91718118     0.81700
N287        N  0.22368123  0.48901931  0.90034181    -0.80800
C288        C  0.45626551  0.22132556  0.65117516     0.79200
N289        N  0.46008790  0.22412536  0.61884661    -0.79100
C290        C  0.46323399  0.19515374  0.60203505     0.81600
N291        N  0.46292065  0.16361792  0.61788458    -0.79100
C292        C  0.45944319  0.16081817  0.65012230     0.81700
N293        N  0.45641993  0.18991810  0.66656109    -0.80800
C294        C  0.46906465  0.22572526  0.91420264     0.79200
N295        N  0.47557509  0.19797768  0.89912524    -0.79100
C296        C  0.48172706  0.17090258  0.91597045     0.81600
N297        N  0.47981296  0.17080910  0.94832637    -0.79100
C298        C  0.47267476  0.19807190  0.96380991     0.81700
N299        N  0.46825515  0.22617583  0.94663487    -0.80800
O300        O  0.40080403  0.01675525  0.74958015    -0.89200
C301        C  0.10879176  0.08702017  0.82637984     1.10800
O302        O  0.44418157  0.47606377  0.78274905    -1.37000
O303        O  0.07939902  0.09202400  0.74401846    -0.90700
O304        O  0.36520176  0.44940587  0.74439875    -0.91400
O305        O  0.44057142  0.43144315  0.71488664    -0.80200
O306        O  0.48956718  0.05385149  0.75313285    -1.02300
C307        C  0.05616942  0.46868213  0.72387272     1.20900
O308        O  0.48091182  0.42830125  0.78237442    -1.37200
Mn309      Mn  0.48504048  0.47234267  0.81721965     1.82100
O310        O  0.02598102  0.47088690  0.71445737    -0.79200
O311        O  0.11160050  0.05632872  0.74715584    -0.88600
C312        C  0.05645834  0.46704438  0.83997800     1.12000
C313        C  0.10682173  0.08435464  0.73493148     1.06700
O314        O  0.44099683  0.43216986  0.84992072    -0.80200
O315        O  0.02848733  0.01294738  0.78204901    -1.33900
O316        O  0.40154797  0.39723701  0.81261923    -0.99400
C317        C  0.47312322  0.34828400  0.73664976     1.05400
Mn318      Mn  0.08364495  0.01169477  0.78233342     1.48600
O319        O  0.44096424  0.34525564  0.74852903    -0.88600
Mn320      Mn  0.38495664  0.42539337  0.78160098     1.49600
O321        O  0.40201125  0.01572284  0.82026317    -0.92500
C322        C  0.48713328  0.04837802  0.72456387     1.18600
C323        C  0.37069472  0.48265882  0.82820110     1.10100
Mn324      Mn  0.48429239  0.47264352  0.74744594     1.81000
O325        O  0.05962978  0.46560102  0.81138861    -0.97600
Mn326      Mn  0.44550807  0.03269042  0.78393595     1.49300
C327        C  0.37338875  0.48518092  0.73638003     1.07200
Mn328      Mn  0.03180472  0.41981878  0.78187687     1.49900
C329        C  0.47436665  0.34878565  0.82915916     1.10100
O330        O  0.40266396  0.39670416  0.75288939    -1.03400
O331        O  0.11149476  0.05615491  0.81816870    -0.93100
C332        C  0.40844938  0.40094673  0.72422611     1.21400
O333        O  0.05963272  0.46633309  0.75251843    -1.03800
O334        O  0.08223530  0.09458193  0.81512018    -0.91200
O335        O  0.00901841  0.37428760  0.81783577    -0.90800
O336        O  0.36225431  0.44871519  0.81606605    -0.90800
Mn337      Mn  0.03627359  0.07186762  0.78122318     1.47900
O338        O  0.02648552  0.46928461  0.84988514    -0.79300
C339        C  0.40775077  0.40285516  0.84120738     1.14400
O340        O  0.48542480  0.01634346  0.71478856    -0.78100
O341        O  0.48931158  0.01639488  0.84990440    -0.77700
Mn342      Mn  0.42433963  0.37338414  0.78338238     1.51100
O343        O  0.00859972  0.37493561  0.74583750    -0.90000
O344        O  0.49218162  0.05512025  0.81247378    -0.97500
O345        O  0.44149520  0.34628227  0.81932826    -0.92600
C346        C  0.49196202  0.04918192  0.84104478     1.12200
C347        C  0.48949917  0.14124072  0.89902659    -0.07100
C348        C  0.47299179  0.10152364  0.91122271    -0.18300
C349        C  0.47445929  0.07083318  0.89371767     0.10100
C350        C  0.49326648  0.08003872  0.86332382    -0.07100
C351        C  0.01183061  0.12024988  0.85231231    -0.18300
C352        C  0.01059620  0.15074404  0.86980232     0.10100
S353        S  0.44961899  0.02045585  0.91073329    -0.33300
S354        S  0.03806501  0.20157874  0.85363102    -0.33300
H355        H  0.05106589  0.22052840  0.88346273     0.28100
H356        H  0.42831548  0.50100010  0.88275009     0.28100
H357        H  0.45691138  0.09373480  0.93379166     0.18700
H358        H  0.02761366  0.12824174  0.82958428     0.18700
C359        C  0.46619934  0.25700635  0.89516987    -0.07100
C360        C  0.49562024  0.29758913  0.89983998    -0.18300
C361        C  0.49866173  0.32831521  0.87947765     0.10100
C362        C  0.47131998  0.31869455  0.85365021    -0.07100
C363        C  0.44067764  0.27797569  0.84993245    -0.18300
C364        C  0.43798277  0.24716525  0.87016983     0.10100
S365        S  0.53826898  0.37866367  0.88842378    -0.33300
S366        S  0.39824311  0.19587268  0.86259629    -0.33300
H367        H  0.39430120  0.18208526  0.89430576     0.28100
H368        H  0.51746183  0.39793878  0.87727713     0.28100
H369        H  0.51745133  0.30528544  0.91894190     0.18700
H370        H  0.41933195  0.26980048  0.83042985     0.18700
C371        C  0.46571593  0.13063314  0.66783760    -0.07100
C372        C  0.99207081  0.14487434  0.69393805    -0.18300
C373        C  0.00081295  0.11919470  0.71194708     0.10100
C374        C  0.48312971  0.07769327  0.70349664    -0.07100
C375        C  0.45755207  0.06348947  0.67675344    -0.18300
C376        C  0.44806672  0.08930527  0.65921583     0.10100
S377        S  0.03533322  0.14074763  0.74522932    -0.33300
S378        S  0.41120014  0.06711210  0.62776280    -0.33300
H379        H  0.39385629  0.09190724  0.63248027     0.28100
H380        H  0.04516517  0.18141118  0.74095056     0.28100
H381        H  0.00618714  0.17669399  0.70012835     0.18700
H382        H  0.44311623  0.03164604  0.67053318     0.18700
C383        C  0.45674144  0.25431615  0.67015114    -0.07100
C384        C  0.98935358  0.29409225  0.66576290    -0.18300
C385        C  0.99533114  0.32558508  0.68637569     0.10100
C386        C  0.46801515  0.31755556  0.71223129    -0.07100
C387        C  0.43484607  0.27793361  0.71577346    -0.18300
C388        C  0.42900530  0.24645756  0.69526150     0.10100
S389        S  0.03830468  0.37464260  0.67811415    -0.33300
S390        S  0.38572977  0.19688250  0.70262047    -0.33300
H391        H  0.38019548  0.18409631  0.67067284     0.28100
H392        H  0.01914971  0.39642389  0.68711318     0.28100
H393        H  0.01104417  0.30030508  0.64675874     0.18700
H394        H  0.41365356  0.27100942  0.73528828     0.18700
C395        C  0.46972580  0.19711693  0.99910928    -0.07100
C396        C  0.98914982  0.23377722  0.51602835    -0.18300
C397        C  0.98896225  0.23430073  0.54950564     0.10100
C398        C  0.46681021  0.19722815  0.56671006    -0.07100
C399        C  0.44747829  0.16061861  0.54972914    -0.18300
C400        C  0.44828613  0.15999638  0.51640383     0.10100
S401        S  0.01943244  0.28266847  0.56858973    -0.33300
S402        S  0.42045061  0.11111344  0.49755111    -0.33300
H403        H  0.40561702  0.12520488  0.97281075     0.28100
H404        H  0.03348396  0.26725846  0.59302364     0.28100
H405        H  0.00611381  0.26217551  0.50308731     0.18700
H406        H  0.43063311  0.13208042  0.56251851     0.18700
C407        C  0.28825450  0.49055719  0.89524055    -0.07100
C408        C  0.27408967  0.45835291  0.87355637    -0.18300
C409        C  0.29993119  0.45503703  0.85163087     0.10100
C410        C  0.34197886  0.48383730  0.85182710    -0.07100
C411        C  0.35621498  0.01571785  0.87395242    -0.18300
C412        C  0.32987772  0.01962312  0.89528939     0.10100
S413        S  0.27611689  0.41531112  0.82240653    -0.33300
S414        S  0.35100926  0.06397193  0.92020620    -0.33300
H415        H  0.31706855  0.06940237  0.91881059     0.28100
H416        H  0.29568232  0.44125319  0.79628663     0.28100
H417        H  0.24201594  0.43618594  0.87286590     0.18700
H418        H  0.38797053  0.03872140  0.87398439     0.18700
C419        C  0.08920065  0.46944480  0.86094081    -0.07100
C420        C  0.09411673  0.98544047  0.89184816    -0.18300
C421        C  0.12626837  0.99043046  0.91147234     0.10100
C422        C  0.15514451  0.48022719  0.89981885    -0.07100
C423        C  0.14912113  0.46302395  0.86934230    -0.18300
C424        C  0.11687918  0.45729517  0.84995092     0.10100
S425        S  0.12898432  0.01077647  0.95061809    -0.33300
S426        S  0.11097530  0.43223753  0.81199625    -0.33300
H427        H  0.14853531  0.43343916  0.81143056     0.28100
H428        H  0.12370549  0.97541602  0.96600242     0.28100
H429        H  0.07303592  0.99449510  0.90072001     0.18700
H430        H  0.16976948  0.45342377  0.86056806     0.18700
C431        C  0.29591801  0.50149561  0.67017968    -0.07100
C432        C  0.31010729  0.47477923  0.66249844    -0.18300
C433        C  0.33667468  0.46980891  0.68278557     0.10100
C434        C  0.34866435  0.49121481  0.71190060    -0.07100
C435        C  0.33640127  0.51979715  0.71843949    -0.18300
C436        C  0.31069992  0.52546941  0.69786571     0.10100
S437        S  0.35489940  0.43680145  0.66956992    -0.33300
S438        S  0.29748927  0.06335107  0.70851902    -0.33300
H439        H  0.29296937  0.07315754  0.67693203     0.28100
H440        H  0.39302627  0.45867676  0.68418219     0.28100
H441        H  0.29950471  0.45673644  0.64099833     0.18700
H442        H  0.34591464  0.03698231  0.74031757     0.18700
C443        C  0.15825157  0.48134160  0.66891088    -0.07100
C444        C  0.13078063  0.99162625  0.65472622    -0.18300
C445        C  0.09611269  0.98628929  0.67101581     0.10100
C446        C  0.08894122  0.47126781  0.70273418    -0.07100
C447        C  0.11599116  0.46038918  0.71644761    -0.18300
C448        C  0.14963152  0.46443150  0.70004767     0.10100
S449        S  0.06334970  0.00016791  0.65029768    -0.33300
S450        S  0.17886386  0.44556172  0.72034425    -0.33300
H451        H  0.18178216  0.42514180  0.69342323     0.28100
H452        H  0.02856149  0.96210721  0.65536898     0.28100
H453        H  0.13659861  0.00427507  0.63081317     0.18700
H454        H  0.11064332  0.44783234  0.74036506     0.18700
C455        C  0.23027172  0.49566152  0.99987644    -0.07100
C456        C  0.19540221  0.46745225  0.51623474    -0.18300
C457        C  0.19440682  0.46473523  0.54954428     0.10100
C458        C  0.22886273  0.49188156  0.56733990    -0.07100
C459        C  0.26386515  0.01977438  0.55103948    -0.18300
C460        C  0.26484126  0.02238882  0.51767056     0.10100
S461        S  0.14902617  0.42447285  0.56761968    -0.33300
S462        S  0.31019918  0.06219045  0.49945764    -0.33300
H463        H  0.28924760  0.07109062  0.97514244     0.28100
H464        H  0.16942209  0.41581914  0.59173265     0.28100
H465        H  0.16893850  0.44560382  0.00288820     0.18700
H466        H  0.29040282  0.04093453  0.56439910     0.18700
C467        C  0.37641344  0.37433325  0.86387404    -0.07100
C468        C  0.33575451  0.35700077  0.85434511    -0.18300
C469        C  0.30442504  0.32629884  0.87214637     0.10100
C470        C  0.31363681  0.31084388  0.89964748    -0.07100
C471        C  0.35379422  0.32997056  0.91060679    -0.18300
C472        C  0.38521979  0.36151353  0.89311900     0.10100
S473        S  0.25332251  0.30909214  0.85889604    -0.33300
S474        S  0.43575130  0.38178608  0.90843836    -0.33300
H475        H  0.45189216  0.38100117  0.87869799     0.28100
H476        H  0.23621438  0.30077303  0.88968564     0.28100
H477        H  0.32821229  0.36736058  0.83262132     0.18700
H478        H  0.36109096  0.31885484  0.93204005     0.18700
C479        C  0.13890031  0.11714784  0.84882314    -0.07100
C480        C  0.15305798  0.10445456  0.87504412    -0.18300
C481        C  0.18149742  0.13275994  0.89651824     0.10100
C482        C  0.19544898  0.17469694  0.89222887    -0.07100
C483        C  0.18115597  0.18704753  0.86607065    -0.18300
C484        C  0.15413607  0.15929361  0.84415709     0.10100
S485        S  0.20034233  0.11378050  0.92770181    -0.33300
S486        S  0.14265937  0.18033747  0.80959187    -0.33300
H487        H  0.14554595  0.15379512  0.78778735     0.28100
H488        H  0.24030250  0.14653526  0.92665219     0.28100
H489        H  0.14231511  0.07239492  0.87861297     0.18700
H490        H  0.19192217  0.21906177  0.86213517     0.18700
C491        C  0.31486383  0.30690612  0.66635113    -0.07100
C492        C  0.35448745  0.32935857  0.65412591    -0.18300
C493        C  0.38571680  0.36073660  0.67178673     0.10100
C494        C  0.37736021  0.37031899  0.70247584    -0.07100
C495        C  0.33723097  0.34903276  0.71379511    -0.18300
C496        C  0.30607512  0.31842902  0.69602422     0.10100
S497        S  0.43562425  0.38556885  0.65448889    -0.33300
S498        S  0.25551883  0.29664448  0.71223766    -0.33300
H499        H  0.23669138  0.29233680  0.68247306     0.28100
H500        H  0.45421306  0.38407580  0.68291044     0.28100
H501        H  0.36167111  0.32120491  0.63128436     0.18700
H502        H  0.32974659  0.35676912  0.73670425     0.18700
C503        C  0.19753503  0.16916440  0.67014172    -0.07100
C504        C  0.15641105  0.15372119  0.66304810    -0.18300
C505        C  0.12593070  0.12468114  0.68278852     0.10100
C506        C  0.13662329  0.11092034  0.71059304    -0.07100
C507        C  0.17780740  0.12494157  0.71668806    -0.18300
C508        C  0.20821128  0.15354882  0.69677407     0.10100
S509        S  0.07432335  0.10608880  0.67065616    -0.33300
S510        S  0.26000535  0.16867721  0.70658371    -0.33300
H511        H  0.27403335  0.17517097  0.67486489     0.28100
H512        H  0.05910705  0.06739787  0.68442595     0.28100
H513        H  0.14793777  0.16512251  0.64239887     0.18700
H514        H  0.18650966  0.11428809  0.73766283     0.18700
C515        C  0.24939357  0.23613017  0.99839355    -0.07100
C516        C  0.23917988  0.19986941  0.51447489    -0.18300
C517        C  0.24123052  0.19845395  0.54785448     0.10100
C518        C  0.25320127  0.23413817  0.56591983    -0.07100
C519        C  0.26280906  0.27027896  0.54973856    -0.18300
C520        C  0.26052732  0.27165313  0.51650224     0.10100
S521        S  0.23074741  0.15076708  0.56549162    -0.33300
S522        S  0.26917659  0.31886683  0.99922504    -0.33300
H523        H  0.23904355  0.30072609  0.97570276     0.28100
H524        H  0.26226119  0.16835778  0.58797656     0.28100
H525        H  0.23106393  0.17264168  0.50092958     0.18700
H526        H  0.27106046  0.29761503  0.56317882     0.18700
C527        C  0.22811229  0.70375215  0.15117150     0.79200
N528        N  0.25688687  0.73742050  0.16606479    -0.79100
C529        C  0.28410135  0.77033275  0.14913037     0.81600
N530        N  0.28306337  0.76880033  0.11669561    -0.79100
C531        C  0.25450650  0.73496846  0.10136388     0.81700
N532        N  0.22657112  0.70290148  0.11881215    -0.80800
C533        C  0.22638333  0.70743324  0.41263803     0.79200
N534        N  0.25544945  0.74181254  0.39831295    -0.79100
C535        C  0.28264192  0.77374320  0.41574434     0.81600
N536        N  0.28096098  0.77110598  0.44797553    -0.79100
C537        C  0.25152022  0.73745156  0.46291771     0.81700
N538        N  0.22426032  0.70536387  0.44512805    -0.80800
C539        C  0.26184053  0.99955000  0.15155050     0.79200
N540        N  0.26154950  0.99790720  0.11919032    -0.79100
C541        C  0.22846662  0.99256385  0.10263265     0.81600
N542        N  0.19538406  0.98814240  0.11872397    -0.79100
C543        C  0.19508889  0.98884985  0.15113194     0.81700
N544        N  0.22870396  0.99520295  0.16716186    -0.80800
C545        C  0.25735027  0.99353891  0.41492816     0.79200
N546        N  0.26017345  0.99663187  0.44726261    -0.79100
C547        C  0.22925646  0.99552082  0.46460338     0.81600
N548        N  0.19544360  0.99061116  0.44943798    -0.79100
C549        C  0.19241774  0.98766913  0.41722051     0.81700
N550        N  0.22350896  0.98894042  0.40037348    -0.80800
C551        C  0.45675753  0.72161669  0.15110963     0.79200
N552        N  0.46059108  0.72439495  0.11878162    -0.79100
C553        C  0.46374032  0.69540979  0.10199107     0.81600
N554        N  0.46340727  0.66387768  0.11786440    -0.79100
C555        C  0.45990888  0.66109778  0.15010116     0.81700
N556        N  0.45688582  0.69021084  0.16651721    -0.80800
C557        C  0.46940309  0.72578346  0.41412163     0.79200
N558        N  0.47604735  0.69808554  0.39910675    -0.79100
C559        C  0.48225742  0.67109241  0.41601515     0.81600
N560        N  0.48029700  0.67103408  0.44836099    -0.79100
C561        C  0.47304752  0.69824841  0.46378784     0.81700
N562        N  0.46854688  0.72627189  0.44655925    -0.80800
O563        O  0.40100350  0.51702950  0.24954107    -0.89200
C564        C  0.10870295  0.58711747  0.32647474     1.10800
O565        O  0.44414131  0.97612292  0.28273649    -1.37000
O566        O  0.07933907  0.59213266  0.24411263    -0.90700
O567        O  0.36513291  0.94941687  0.24438394    -0.91400
O568        O  0.44055354  0.93150292  0.21487875    -0.80200
O569        O  0.48972471  0.55396709  0.25317722    -1.02300
C570        C  0.05602322  0.96878997  0.22393384     1.20900
O571        O  0.48090958  0.92837716  0.28236677    -1.37200
Mn572      Mn  0.48501938  0.97242126  0.31720511     1.82100
O573        O  0.02580827  0.97093317  0.21450595    -0.79200
O574        O  0.11161207  0.55650551  0.24728931    -0.88600
C575        C  0.05633618  0.96716394  0.34005269     1.12000
C576        C  0.10680359  0.58451157  0.23506488     1.06700
O577        O  0.44098871  0.93226219  0.34989596    -0.80200
O578        O  0.02846272  0.51304221  0.28209806    -1.33900
O579        O  0.40155132  0.89730324  0.31259407    -0.99400
C580        C  0.47317599  0.84842125  0.23657593     1.05400
Mn581      Mn  0.08363337  0.51182328  0.28242025     1.48600
O582        O  0.44099654  0.84531866  0.24848694    -0.88600
Mn583      Mn  0.38492237  0.92543110  0.28158369     1.49600
O584        O  0.40213134  0.51598135  0.32023204    -0.92500
C585        C  0.48729617  0.54851042  0.22460737     1.18600
C586        C  0.37060205  0.98269362  0.32817705     1.10100
Mn587      Mn  0.48426724  0.97271058  0.24744486     1.81000
O588        O  0.05949637  0.96570830  0.31146141    -0.97600
Mn589      Mn  0.44564902  0.53288112  0.28394635     1.49300
C590        C  0.37329417  0.98518314  0.23636202     1.07200
Mn591      Mn  0.03171978  0.91993260  0.28193250     1.49900
C592        C  0.47441192  0.84879128  0.32909117     1.10100
O593        O  0.40262913  0.89673626  0.25286532    -1.03400
O594        O  0.11140874  0.55624843  0.31828366    -0.93100
C595        C  0.40841537  0.90100944  0.22419949     1.21400
O596        O  0.05947322  0.96645744  0.25258471    -1.03800
O597        O  0.08215771  0.59468272  0.31519868    -0.91200
O598        O  0.00903675  0.87438829  0.31786524    -0.90800
O599        O  0.36220233  0.94875291  0.31605369    -0.90800
Mn600      Mn  0.03621537  0.57195415  0.28129237     1.47900
O601        O  0.02637071  0.96941179  0.34996343    -0.79300
C602        C  0.40774118  0.90295879  0.34117903     1.14400
O603        O  0.48551371  0.51644605  0.21482543    -0.78100
O604        O  0.48935741  0.51644788  0.34992512    -0.77700
Mn605      Mn  0.42434969  0.87343415  0.28336018     1.51100
O606        O  0.00852659  0.87505505  0.24588144    -0.90000
O607        O  0.49229769  0.55525021  0.31252389    -0.97500
O608        O  0.44152431  0.84630186  0.31930599    -0.92600
C609        C  0.49208870  0.54927122  0.34108910     1.12200
C610        C  0.49005815  0.64142286  0.39915052    -0.07100
C611        C  0.47336079  0.60167128  0.41130204    -0.18300
C612        C  0.47472137  0.57094495  0.39378081     0.10100
C613        C  0.49358190  0.58015607  0.36340806    -0.07100
C614        C  0.01212969  0.62038287  0.35242930    -0.18300
C615        C  0.01110425  0.65094267  0.36997940     0.10100
S616        S  0.44968961  0.52053456  0.41074180    -0.33300
S617        S  0.03877081  0.70179844  0.35387022    -0.33300
H618        H  0.05171937  0.72068887  0.38372826     0.28100
H619        H  0.42811790  0.00107004  0.38248428     0.28100
H620        H  0.45719392  0.59388713  0.43383665     0.18700
H621        H  0.02785488  0.62833587  0.32967482     0.18700
C622        C  0.46644400  0.75697886  0.39501846    -0.07100
C623        C  0.49552652  0.79762930  0.39989628    -0.18300
C624        C  0.49850544  0.82834954  0.37955551     0.10100
C625        C  0.47142206  0.81865991  0.35353150    -0.07100
C626        C  0.44112071  0.77785090  0.34957401    -0.18300
C627        C  0.43849983  0.74704654  0.36979173     0.10100
S628        S  0.53769992  0.87877253  0.38882116    -0.33300
S629        S  0.39917854  0.69565698  0.36192680    -0.33300
H630        H  0.39489630  0.68176480  0.39362968     0.28100
H631        H  0.51709685  0.89796128  0.37707170     0.28100
H632        H  0.51715900  0.80540367  0.41916131     0.18700
H633        H  0.41998562  0.76962114  0.32991344     0.18700
C634        C  0.46607948  0.63087036  0.16784794    -0.07100
C635        C  0.99219052  0.64505307  0.19404219    -0.18300
C636        C  0.00081744  0.61932300  0.21209671     0.10100
C637        C  0.48334624  0.57786518  0.20355314    -0.07100
C638        C  0.45784802  0.56370321  0.17676167    -0.18300
C639        C  0.44840531  0.58954525  0.15921929     0.10100
S640        S  0.03520598  0.64081515  0.24546355    -0.33300
S641        S  0.41156823  0.56738575  0.12774217    -0.33300
H642        H  0.39427729  0.59223465  0.13242246     0.28100
H643        H  0.04120778  0.68043614  0.24356073     0.28100
H644        H  0.00638795  0.67688658  0.20020232     0.18700
H645        H  0.44343516  0.53187671  0.17051027     0.18700
C646        C  0.45713716  0.75457415  0.17006391    -0.07100
C647        C  0.98941548  0.79423604  0.16583119    -0.18300
C648        C  0.99535224  0.82568867  0.18647751     0.10100
C649        C  0.46813987  0.81773936  0.21212660    -0.07100
C650        C  0.43493930  0.77811382  0.21555637    -0.18300
C651        C  0.42923117  0.74667550  0.19504770     0.10100
S652        S  0.03836824  0.87474891  0.17833008    -0.33300
S653        S  0.38590094  0.69708828  0.20224968    -0.33300
H654        H  0.38059500  0.68435596  0.17029306     0.28100
H655        H  0.01904955  0.89645347  0.18711570     0.28100
H656        H  0.01115248  0.80047787  0.14686215     0.18700
H657        H  0.41362413  0.77115296  0.23498075     0.18700
C658        C  0.47004919  0.69728542  0.49908329    -0.07100
C659        C  0.98823544  0.73348425  0.01584976    -0.18300
C660        C  0.98822520  0.73420334  0.04932470     0.10100
C661        C  0.46723164  0.69740550  0.06665778    -0.07100
C662        C  0.44797695  0.66074145  0.04974089    -0.18300
C663        C  0.44862724  0.66002901  0.01641551     0.10100
S664        S  0.01822236  0.78280431  0.06819414    -0.33300
S665        S  0.42082923  0.61106843  0.99766734    -0.33300
H666        H  0.40604843  0.62533824  0.47275948     0.28100
H667        H  0.03297416  0.76795077  0.09252541     0.28100
H668        H  0.00476300  0.76186210  0.00281087     0.18700
H669        H  0.43128647  0.63222330  0.06258139     0.18700
C670        C  0.28808174  0.99046706  0.39524458    -0.07100
C671        C  0.27396931  0.95821068  0.37361376    -0.18300
C672        C  0.29982989  0.95495431  0.35166328     0.10100
C673        C  0.34185535  0.98385113  0.35179914    -0.07100
C674        C  0.35632615  0.51583680  0.37399893    -0.18300
C675        C  0.33000113  0.51972113  0.39535763     0.10100
S676        S  0.27605327  0.91519233  0.32246438    -0.33300
S677        S  0.35125263  0.56382180  0.42053903    -0.33300
H678        H  0.31752929  0.56960091  0.41904806     0.28100
H679        H  0.29554746  0.94112933  0.29632631     0.28100
H680        H  0.24191628  0.93596632  0.37297407     0.18700
H681        H  0.38813028  0.53869867  0.37416745     0.18700
C682        C  0.08909823  0.96959390  0.36100600    -0.07100
C683        C  0.09409816  0.48554285  0.39193457    -0.18300
C684        C  0.12625415  0.49052634  0.41156010     0.10100
C685        C  0.15503874  0.98032392  0.39986762    -0.07100
C686        C  0.14899311  0.96312708  0.36938795    -0.18300
C687        C  0.11676199  0.95743553  0.35000572     0.10100
S688        S  0.12893938  0.51079314  0.45073299    -0.33300
S689        S  0.11080064  0.93229785  0.31208670    -0.33300
H690        H  0.14878473  0.93443165  0.31117385     0.28100
H691        H  0.12381109  0.47546625  0.46607633     0.28100
H692        H  0.07299039  0.49455516  0.40082364     0.18700
H693        H  0.16958529  0.95345832  0.36061071     0.18700
C694        C  0.29569623  0.00137419  0.17019335    -0.07100
C695        C  0.31008999  0.97484295  0.16243368    -0.18300
C696        C  0.33670840  0.96992836  0.18270969     0.10100
C697        C  0.34852418  0.99117951  0.21189987    -0.07100
C698        C  0.33604928  0.01957489  0.21852934    -0.18300
C699        C  0.31032087  0.02521624  0.19796180     0.10100
S700        S  0.35523407  0.93721025  0.16937872    -0.33300
S701        S  0.29793025  0.56381863  0.20811594    -0.33300
H702        H  0.29322307  0.57336876  0.17649573     0.28100
H703        H  0.39320917  0.95898625  0.18423247     0.28100
H704        H  0.29962471  0.95691020  0.14087176     0.18700
H705        H  0.34636760  0.53751902  0.24002297     0.18700
C706        C  0.15805637  0.98131973  0.16893464    -0.07100
C707        C  0.13061611  0.49118327  0.15462334    -0.18300
C708        C  0.09598754  0.48593471  0.17094207     0.10100
C709        C  0.08881757  0.97139325  0.20280856    -0.07100
C710        C  0.11610741  0.96092736  0.21664133    -0.18300
C711        C  0.14970344  0.96489180  0.20023409     0.10100
S712        S  0.06288931  0.49920761  0.15003261    -0.33300
S713        S  0.17920620  0.94651722  0.22077050    -0.33300
H714        H  0.18183156  0.92553014  0.19411683     0.28100
H715        H  0.02825462  0.46115698  0.15551120     0.28100
H716        H  0.13619738  0.50342764  0.13058631     0.18700
H717        H  0.11098602  0.94873736  0.24067283     0.18700
C718        C  0.23018378  0.99569090  0.49992133    -0.07100
C719        C  0.19527382  0.96694452  0.01623506    -0.18300
C720        C  0.19428737  0.96426558  0.04954896     0.10100
C721        C  0.22862291  0.99166956  0.06733731    -0.07100
C722        C  0.26376682  0.52013163  0.05099936    -0.18300
C723        C  0.26475131  0.52273095  0.01763107     0.10100
S724        S  0.14911560  0.92374295  0.06765568    -0.33300
S725        S  0.30986307  0.56292254  0.99941910    -0.33300
H726        H  0.28993000  0.57126886  0.47528706     0.28100
H727        H  0.16969818  0.91550416  0.09187233     0.28100
H728        H  0.16851473  0.94629098  0.50297336     0.18700
H729        H  0.29015076  0.54156433  0.06437663     0.18700
C730        C  0.37636425  0.87453325  0.36384624    -0.07100
C731        C  0.33571966  0.85723907  0.35428942    -0.18300
C732        C  0.30436584  0.82655757  0.37208147     0.10100
C733        C  0.31355107  0.81111452  0.39960088    -0.07100
C734        C  0.35368545  0.83025097  0.41060661    -0.18300
C735        C  0.38512992  0.86175605  0.39312153     0.10100
S736        S  0.25328036  0.80933294  0.35877773    -0.33300
S737        S  0.43565032  0.88196527  0.40843067    -0.33300
H738        H  0.45160073  0.88076906  0.37870619     0.28100
H739        H  0.23611172  0.80095025  0.38954624     0.28100
H740        H  0.32821426  0.86758065  0.33254074     0.18700
H741        H  0.36095599  0.81914523  0.43205763     0.18700
C742        C  0.13882628  0.61726758  0.34888586    -0.07100
C743        C  0.15293173  0.60460638  0.37515688    -0.18300
C744        C  0.18142316  0.63294538  0.39658011     0.10100
C745        C  0.19547597  0.67488904  0.39218556    -0.07100
C746        C  0.18123454  0.68720466  0.36597396    -0.18300
C747        C  0.15415995  0.65941112  0.34411434     0.10100
S748        S  0.20020594  0.61399286  0.42782969    -0.33300
S749        S  0.14272812  0.68038710  0.30948351    -0.33300
H750        H  0.14554393  0.65373456  0.28775352     0.28100
H751        H  0.24021160  0.64665688  0.42669158     0.28100
H752        H  0.14210911  0.57254043  0.37880238     0.18700
H753        H  0.19206915  0.71922024  0.36195941     0.18700
C754        C  0.31473400  0.80713288  0.16624255    -0.07100
C755        C  0.35434230  0.82962282  0.15399055    -0.18300
C756        C  0.38559452  0.86097307  0.17166836     0.10100
C757        C  0.37728842  0.87045062  0.20241737    -0.07100
C758        C  0.33716349  0.84916119  0.21374499    -0.18300
C759        C  0.30597935  0.81862783  0.19594306     0.10100
S760        S  0.43546213  0.88595233  0.15429598    -0.33300
S761        S  0.25542199  0.79690299  0.21214670    -0.33300
H762        H  0.23660827  0.79261202  0.18237702     0.28100
H763        H  0.45413237  0.88423540  0.18260921     0.28100
H764        H  0.36149601  0.82152418  0.13111374     0.18700
H765        H  0.32970173  0.85684611  0.23668494     0.18700
C766        C  0.19747450  0.66937553  0.17030467    -0.07100
C767        C  0.15633621  0.65360951  0.16306492    -0.18300
C768        C  0.12588285  0.62456564  0.18282105     0.10100
C769        C  0.13661545  0.61112219  0.21077393    -0.07100
C770        C  0.17781441  0.62549548  0.21705680    -0.18300
C771        C  0.20819731  0.65410965  0.19713925     0.10100
S772        S  0.07425470  0.60554851  0.17054143    -0.33300
S773        S  0.26002098  0.66966936  0.20720551    -0.33300
H774        H  0.27415808  0.67583375  0.17552511     0.28100
H775        H  0.05926659  0.56694468  0.18442599     0.28100
H776        H  0.14782074  0.66475197  0.14228125     0.18700
H777        H  0.18653100  0.61509300  0.23816986     0.18700
C778        C  0.24940945  0.73638419  0.49832437    -0.07100
C779        C  0.23860956  0.69980770  0.01448407    -0.18300
C780        C  0.24065655  0.69839797  0.04786764     0.10100
C781        C  0.25273258  0.73411403  0.06592455    -0.07100
C782        C  0.26230707  0.77024014  0.04973263    -0.18300
C783        C  0.25999624  0.77159675  0.01649737     0.10100
S784        S  0.23004260  0.65067295  0.06550961    -0.33300
S785        S  0.26977294  0.81929806  0.49920250    -0.33300
H786        H  0.23949304  0.80132397  0.47576958     0.28100
H787        H  0.26165048  0.66819558  0.08791957     0.28100
H788        H  0.23046740  0.67257073  0.00094509     0.18700
H789        H  0.27058003  0.79758614  0.06316321     0.18700
C790        C  0.22810178  0.70368340  0.65108737     0.79200
N791        N  0.25692439  0.73727743  0.66603238    -0.79100
C792        C  0.28425200  0.77017361  0.64914283     0.81600
N793        N  0.28327860  0.76870284  0.61671046    -0.79100
C794        C  0.25467702  0.73495322  0.60133126     0.81700
N795        N  0.22662857  0.70289778  0.61872608    -0.80800
C796        C  0.22657856  0.70726331  0.91261054     0.79200
N797        N  0.25576918  0.74160510  0.89833310    -0.79100
C798        C  0.28289699  0.77353492  0.91580253     0.81600
N799        N  0.28100996  0.77094560  0.94803784    -0.79100
C800        C  0.25144124  0.73731585  0.96293081     0.81700
N801        N  0.22425816  0.70523077  0.94509597    -0.80800
C802        C  0.26182575  0.99946564  0.65162089     0.79200
N803        N  0.26155514  0.99786456  0.61925682    -0.79100
C804        C  0.22851705  0.99263237  0.60269299     0.81600
N805        N  0.19548128  0.98830475  0.61878269    -0.79100
C806        C  0.19515225  0.98893054  0.65118352     0.81700
N807        N  0.22870497  0.99515384  0.66723657    -0.80800
C808        C  0.25744854  0.99349633  0.91490957     0.79200
N809        N  0.26022431  0.99656820  0.94724677    -0.79100
C810        C  0.22927573  0.99543125  0.96455683     0.81600
N811        N  0.19548462  0.99053190  0.94936586    -0.79100
C812        C  0.19251455  0.98763819  0.91714305     0.81700
N813        N  0.22362899  0.98891658  0.90032082    -0.80800
C814        C  0.45691412  0.72162524  0.65112156     0.79200
N815        N  0.46091652  0.72448582  0.61880796    -0.79100
C816        C  0.46408102  0.69550802  0.60202348     0.81600
N817        N  0.46358927  0.66389019  0.61789105    -0.79100
C818        C  0.45992640  0.66103290  0.65011981     0.81700
N819        N  0.45689655  0.69014647  0.66652448    -0.80800
C820        C  0.46879168  0.72542023  0.91407449     0.79200
N821        N  0.47533816  0.69766480  0.89905207    -0.79100
C822        C  0.48143926  0.67059441  0.91595227     0.81600
N823        N  0.47944462  0.67050948  0.94829835    -0.79100
C824        C  0.47225433  0.69776135  0.96373190     0.81700
N825        N  0.46789242  0.72587379  0.94650874    -0.80800
O826        O  0.40091621  0.51690108  0.74966309    -0.89200
C827        C  0.10891880  0.58697811  0.82639409     1.10800
O828        O  0.44418787  0.97606881  0.78267397    -1.37000
O829        O  0.07944406  0.59200574  0.74406694    -0.90700
O830        O  0.36513301  0.94924782  0.74438364    -0.91400
O831        O  0.44063754  0.93145153  0.71481860    -0.80200
O832        O  0.48964164  0.55382365  0.75324860    -1.02300
C833        C  0.05606205  0.96870772  0.72386477     1.20900
O834        O  0.48100837  0.92837719  0.78232308    -1.37200
Mn835      Mn  0.48507883  0.97243682  0.81715057     1.82100
O836        O  0.02585030  0.97086146  0.71444916    -0.79200
O837        O  0.11165557  0.55630880  0.74717228    -0.88600
C838        C  0.05641697  0.96710739  0.83997240     1.12000
C839        C  0.10685550  0.58433221  0.73496248     1.06700
O840        O  0.44107465  0.93224953  0.84985592    -0.80200
O841        O  0.02856938  0.51292852  0.78208327    -1.33900
O842        O  0.40165600  0.89720392  0.81256889    -0.99400
C843        C  0.47338068  0.84844724  0.73655445     1.05400
Mn844      Mn  0.08371269  0.51164891  0.78234660     1.48600
O845        O  0.44118605  0.84536256  0.74841468    -0.88600
Mn846      Mn  0.38499620  0.92532213  0.78156450     1.49600
O847        O  0.40210442  0.51581154  0.82033803    -0.92500
C848        C  0.48718757  0.54837933  0.72467678     1.18600
C849        C  0.37065533  0.98254276  0.82817642     1.10100
Mn850      Mn  0.48432831  0.97268647  0.74737888     1.81000
O851        O  0.05958567  0.96565511  0.81138200    -0.97600
Mn852      Mn  0.44558968  0.53272242  0.78403409     1.49300
C853        C  0.37327042  0.98499814  0.73634248     1.07200
Mn854      Mn  0.03179426  0.91987186  0.78186718     1.49900
C855        C  0.47451847  0.84875921  0.82903078     1.10100
O856        O  0.40275475  0.89669364  0.75282729    -1.03400
O857        O  0.11157904  0.55609085  0.81818342    -0.93100
C858        C  0.40853270  0.90093922  0.72416120     1.21400
O859        O  0.05955482  0.96638135  0.75250917    -1.03800
O860        O  0.08236836  0.59456901  0.81516041    -0.91200
O861        O  0.00909867  0.87434375  0.81781795    -0.90800
O862        O  0.36226949  0.94860283  0.81605905    -0.90800
Mn863      Mn  0.03636728  0.57185900  0.78128601     1.47900
O864        O  0.02645820  0.96937266  0.84987818    -0.79300
C865        C  0.40787497  0.90285877  0.84115510     1.14400
O866        O  0.48544251  0.51634001  0.71487272    -0.78100
O867        O  0.48931981  0.51626082  0.84999577    -0.77700
Mn868      Mn  0.42448267  0.87340503  0.78329996     1.51100
O869        O  0.00860307  0.87497357  0.74582784    -0.90000
O870        O  0.49223648  0.55503736  0.81258881    -0.97500
O871        O  0.44164889  0.84626256  0.81920559    -0.92600
C872        C  0.49199441  0.54905729  0.84115391     1.12200
C873        C  0.48932369  0.64097814  0.89908369    -0.07100
C874        C  0.47275181  0.60124396  0.91125567    -0.18300
C875        C  0.47431448  0.57059057  0.89377909     0.10100
C876        C  0.49328095  0.57986654  0.86344860    -0.07100
C877        C  0.01209622  0.62020667  0.85250894    -0.18300
C878        C  0.01084271  0.65068240  0.87001009     0.10100
S879        S  0.44937873  0.52017445  0.91073169    -0.33300
S880        S  0.03857843  0.70158500  0.85400236    -0.33300
H881        H  0.05131721  0.72038750  0.88391072     0.28100
H882        H  0.42841854  0.00123310  0.88281021     0.28100
H883        H  0.45654081  0.59341351  0.93376570     0.18700
H884        H  0.02802117  0.62824302  0.82984348     0.18700
C885        C  0.46608180  0.75675947  0.89498518    -0.07100
C886        C  0.49556362  0.79731703  0.89968051    -0.18300
C887        C  0.49872695  0.82809822  0.87931626     0.10100
C888        C  0.47144554  0.81857191  0.85345729    -0.07100
C889        C  0.44078622  0.77786493  0.84967383    -0.18300
C890        C  0.43797484  0.74699636  0.86990989     0.10100
S891        S  0.53839694  0.87839732  0.88831279    -0.33300
S892        S  0.39822035  0.69573582  0.86224555    -0.33300
H893        H  0.39412314  0.68189288  0.89394955     0.28100
H894        H  0.51766543  0.89776471  0.87719290     0.28100
H895        H  0.51733683  0.80495206  0.91881828     0.18700
H896        H  0.41949928  0.76974911  0.83013521     0.18700
C897        C  0.46600560  0.63076813  0.66790057    -0.07100
C898        C  0.99190358  0.64481558  0.69410518    -0.18300
C899        C  0.00073789  0.61918527  0.71209083     0.10100
C900        C  0.48318539  0.57772345  0.70364437    -0.07100
C901        C  0.45768530  0.56357198  0.67685184    -0.18300
C902        C  0.44829504  0.58943636  0.65928309     0.10100
S903        S  0.03519693  0.64075327  0.74540987    -0.33300
S904        S  0.41147140  0.56731029  0.62779391    -0.33300
H905        H  0.39427032  0.59224947  0.63241424     0.28100
H906        H  0.04418672  0.68122910  0.74163009     0.28100
H907        H  0.00586264  0.67659875  0.70037014     0.18700
H908        H  0.44324687  0.53173612  0.67060622     0.18700
C909        C  0.45730394  0.75457950  0.67008173    -0.07100
C910        C  0.98917383  0.79404231  0.66571870    -0.18300
C911        C  0.99519476  0.82554756  0.68634118     0.10100
C912        C  0.46836557  0.81776081  0.71213250    -0.07100
C913        C  0.43524659  0.77811132  0.71565729    -0.18300
C914        C  0.42951124  0.74666376  0.69515825     0.10100
S915        S  0.03809218  0.87462708  0.67797926    -0.33300
S916        S  0.38628967  0.69704656  0.70249589    -0.33300
H917        H  0.38077692  0.68430685  0.67053612     0.28100
H918        H  0.01900975  0.89641906  0.68713609     0.28100
H919        H  0.01076893  0.80027571  0.64663942     0.18700
H920        H  0.41401732  0.77114447  0.73514719     0.18700
C921        C  0.46933650  0.69686518  0.99903508    -0.07100
C922        C  0.98938406  0.73371358  0.51608607    -0.18300
C923        C  0.98920282  0.73422902  0.54956511     0.10100
C924        C  0.46774227  0.69760991  0.56670128    -0.07100
C925        C  0.44842635  0.66100917  0.54971003    -0.18300
C926        C  0.44916099  0.66040720  0.51638495     0.10100
S927        S  0.01990588  0.78253192  0.56867354    -0.33300
S928        S  0.42121181  0.61153743  0.49752258    -0.33300
H929        H  0.40545024  0.62466072  0.97291845     0.28100
H930        H  0.03368165  0.76693664  0.59317007     0.28100
H931        H  0.00643985  0.76210229  0.50314782     0.18700
H932        H  0.43160004  0.63246149  0.56248937     0.18700
C933        C  0.28818565  0.99037558  0.89526764    -0.07100
C934        C  0.27406855  0.95805449  0.87369906    -0.18300
C935        C  0.29992061  0.95474255  0.85177218     0.10100
C936        C  0.34193588  0.98368026  0.85184260    -0.07100
C937        C  0.35630147  0.51577223  0.87402789    -0.18300
C938        C  0.32998145  0.51968894  0.89536769     0.10100
S939        S  0.27613155  0.91482129  0.82270075    -0.33300
S940        S  0.35118759  0.56390953  0.92042166    -0.33300
H941        H  0.31736229  0.56952629  0.91899179     0.28100
H942        H  0.29545095  0.94066237  0.79647901     0.28100
H943        H  0.24202253  0.93579834  0.87309304     0.18700
H944        H  0.38808903  0.53869153  0.87413346     0.18700
C945        C  0.08915907  0.96950644  0.86093359    -0.07100
C946        C  0.09411349  0.48533736  0.89186650    -0.18300
C947        C  0.12622904  0.49029799  0.91151619     0.10100
C948        C  0.15515752  0.98032132  0.89976805    -0.07100
C949        C  0.14910832  0.96312016  0.86929005    -0.18300
C950        C  0.11686274  0.95741156  0.84992029     0.10100
S951        S  0.12888382  0.51058028  0.95067802    -0.33300
S952        S  0.11096489  0.93230147  0.81201091    -0.33300
H953        H  0.14995920  0.93686013  0.81029957     0.28100
H954        H  0.12371605  0.47524836  0.96603929     0.28100
H955        H  0.07301814  0.49438048  0.90073030     0.18700
H956        H  0.16966830  0.95340723  0.86050725     0.18700
C957        C  0.29563547  0.00120575  0.67025423    -0.07100
C958        C  0.30990405  0.97456935  0.66251075    -0.18300
C959        C  0.33650844  0.96961503  0.68276822     0.10100
C960        C  0.34845671  0.99096020  0.71191166    -0.07100
C961        C  0.33607366  0.01942656  0.71853391    -0.18300
C962        C  0.31033783  0.02508435  0.69799636     0.10100
S963        S  0.35483618  0.93671743  0.66948113    -0.33300
S964        S  0.29797998  0.56386204  0.70826868    -0.33300
H965        H  0.29333866  0.57348889  0.67665615     0.28100
H966        H  0.39293466  0.95858385  0.68413737     0.28100
H967        H  0.29934915  0.95658727  0.64097659     0.18700
H968        H  0.34629096  0.53741801  0.74018808     0.18700
C969        C  0.15810417  0.98135598  0.66893086    -0.07100
C970        C  0.13078427  0.49138077  0.65465377    -0.18300
C971        C  0.09611290  0.48603192  0.67095570     0.10100
C972        C  0.08880366  0.97128249  0.70272368    -0.07100
C973        C  0.11571261  0.96018673  0.71638254    -0.18300
C974        C  0.14935632  0.96423847  0.69999688     0.10100
S975        S  0.06313728  0.49953591  0.65012838    -0.33300
S976        S  0.17842851  0.94512189  0.72020761    -0.33300
H977        H  0.18136252  0.92484034  0.69320121     0.28100
H978        H  0.02844709  0.46147669  0.65544735     0.28100
H979        H  0.13648323  0.50384842  0.63068765     0.18700
H980        H  0.11024721  0.94745335  0.74024973     0.18700
C981        C  0.23016991  0.99559645  0.99986718    -0.07100
C982        C  0.19511161  0.96739755  0.51630125    -0.18300
C983        C  0.19410881  0.96470437  0.54961053     0.10100
C984        C  0.22864092  0.99172142  0.56739583    -0.07100
C985        C  0.26402953  0.52007559  0.55099211    -0.18300
C986        C  0.26500874  0.52270459  0.51762113     0.10100
S987        S  0.14860344  0.92463635  0.56769697    -0.33300
S988        S  0.31029247  0.56264932  0.49942324    -0.33300
H989        H  0.28934940  0.57119267  0.97519054     0.28100
H990        H  0.16887324  0.91579179  0.59179448     0.28100
H991        H  0.16882827  0.94555974  0.00289089     0.18700
H992        H  0.29051272  0.54132217  0.56436013     0.18700
C993        C  0.37657758  0.87434704  0.86384483    -0.07100
C994        C  0.33590410  0.85707585  0.85437902    -0.18300
C995        C  0.30459367  0.82640746  0.87221294     0.10100
C996        C  0.31383762  0.81090682  0.89966662    -0.07100
C997        C  0.35401576  0.82997098  0.91057193    -0.18300
C998        C  0.38542933  0.86149658  0.89305738     0.10100
S999        S  0.25346685  0.80928225  0.85906744    -0.33300
S1000       S  0.43599327  0.88171260  0.90830053    -0.33300
H1001       H  0.45214103  0.88113949  0.87851020     0.28100
H1002       H  0.23642372  0.80089184  0.88988026     0.28100
H1003       H  0.32833529  0.86745750  0.83268047     0.18700
H1004       H  0.36132948  0.81881617  0.93197535     0.18700
C1005       C  0.13910694  0.61712221  0.84877548    -0.07100
C1006       C  0.15309825  0.60444349  0.87510947    -0.18300
C1007       C  0.18157030  0.63277668  0.89655058     0.10100
C1008       C  0.19574129  0.67473432  0.89209679    -0.07100
C1009       C  0.18166158  0.68707029  0.86579116    -0.18300
C1010       C  0.15458147  0.65927342  0.84393053     0.10100
S1011       S  0.20015024  0.61378819  0.92792425    -0.33300
S1012       S  0.14327219  0.68023450  0.80922647    -0.33300
H1013       H  0.14589526  0.65340142  0.78757258     0.28100
H1014       H  0.24018024  0.64641587  0.92689462     0.28100
H1015       H  0.14217395  0.57236921  0.87880769     0.18700
H1016       H  0.19259597  0.71909246  0.86172265     0.18700
C1017       C  0.31493154  0.80690259  0.66628561    -0.07100
C1018       C  0.35458739  0.82924537  0.65409976    -0.18300
C1019       C  0.38582996  0.86062624  0.67175698     0.10100
C1020       C  0.37745616  0.87029609  0.70241060    -0.07100
C1021       C  0.33731132  0.84909120  0.71369607    -0.18300
C1022       C  0.30614386  0.81851420  0.69591795     0.10100
S1023       S  0.43575914  0.88536916  0.65449276    -0.33300
S1024       S  0.25556554  0.79690106  0.71205230    -0.33300
H1025       H  0.23683057  0.79264343  0.68225142     0.28100
H1026       H  0.45434722  0.88407451  0.68297241     0.28100
H1027       H  0.36177219  0.82101966  0.63128937     0.18700
H1028       H  0.32981992  0.85689322  0.73657539     0.18700
C1029       C  0.19744859  0.66925399  0.67017273    -0.07100
C1030       C  0.15630286  0.65351803  0.66297287    -0.18300
C1031       C  0.12586572  0.62442554  0.68272029     0.10100
C1032       C  0.13662650  0.61091636  0.71062745    -0.07100
C1033       C  0.17783050  0.62523211  0.71684013    -0.18300
C1034       C  0.20819044  0.65387829  0.69692499     0.10100
S1035       S  0.07422477  0.60543808  0.67048515    -0.33300
S1036       S  0.26002116  0.66934000  0.70688393    -0.33300
H1037       H  0.27407415  0.67554270  0.67517744     0.28100
H1038       H  0.05919755  0.56687020  0.68444002     0.28100
H1039       H  0.14777214  0.66472038  0.64223505     0.18700
H1040       H  0.18657315  0.61476867  0.73790251     0.18700
C1041       C  0.24914285  0.73624451  0.99833636    -0.07100
C1042       C  0.23888300  0.69992941  0.51443920    -0.18300
C1043       C  0.24093250  0.69848043  0.54781721     0.10100
C1044       C  0.25300834  0.73417311  0.56589802    -0.07100
C1045       C  0.26267614  0.77034240  0.54973998    -0.18300
C1046       C  0.26036458  0.77174379  0.51651119     0.10100
S1047       S  0.23028654  0.65073170  0.56543180    -0.33300
S1048       S  0.26930763  0.81909040  0.99913421    -0.33300
H1049       H  0.23920252  0.80104176  0.97557998     0.28100
H1050       H  0.26180855  0.66821667  0.58791673     0.28100
H1051       H  0.23070095  0.67269739  0.50087845     0.18700
H1052       H  0.27099180  0.79768231  0.56319534     0.18700
C1053       C  0.72815537  0.20372580  0.15112025     0.79200
N1054       N  0.75688935  0.23741954  0.16601993    -0.79100
C1055       C  0.78413684  0.27032044  0.14908859     0.81600
N1056       N  0.78317082  0.26874595  0.11665423    -0.79100
C1057       C  0.75466087  0.23489257  0.10131344     0.81700
N1058       N  0.72669180  0.20283673  0.11875611    -0.80800
C1059       C  0.72632112  0.20739689  0.41267076     0.79200
N1060       N  0.75543571  0.24172036  0.39831461    -0.79100
C1061       C  0.78267482  0.27365945  0.41571710     0.81600
N1062       N  0.78098406  0.27109038  0.44795362    -0.79100
C1063       C  0.75150156  0.23748399  0.46292046     0.81700
N1064       N  0.72419979  0.20539093  0.44515989    -0.80800
C1065       C  0.76175017  0.49935211  0.15148642     0.79200
N1066       N  0.76148846  0.49782852  0.11912317    -0.79100
C1067       C  0.72842382  0.49254372  0.10257626     0.81600
N1068       N  0.69533740  0.48807698  0.11868078    -0.79100
C1069       C  0.69500556  0.48865056  0.15108907     0.81700
N1070       N  0.72859801  0.49493562  0.16712339    -0.80800
C1071       C  0.75747669  0.49376071  0.41483293     0.79200
N1072       N  0.76027492  0.49676626  0.44717317    -0.79100
C1073       C  0.72935260  0.49562938  0.46452717     0.81600
N1074       N  0.69555155  0.49076520  0.44936780    -0.79100
C1075       C  0.69255194  0.48790768  0.41714461     0.81700
N1076       N  0.72365571  0.48922282  0.40028855    -0.80800
C1077       C  0.95662897  0.22156858  0.15118153     0.79200
N1078       N  0.96048608  0.22434345  0.11885439    -0.79100
C1079       C  0.96355921  0.19531063  0.10206596     0.81600
N1080       N  0.96311503  0.16372559  0.11794869    -0.79100
C1081       C  0.95958170  0.16094199  0.15018536     0.81700
N1082       N  0.95664464  0.19010904  0.16659095    -0.80800
C1083       C  0.96920439  0.22576506  0.41416524     0.79200
N1084       N  0.97578332  0.19802098  0.39915191    -0.79100
C1085       C  0.98183201  0.17092336  0.41606677     0.81600
N1086       N  0.97977167  0.17081395  0.44841015    -0.79100
C1087       C  0.97258845  0.19808042  0.46382828     0.81700
N1088       N  0.96825056  0.22619963  0.44659832    -0.80800
O1089       O  0.90082966  0.01687342  0.24958450    -0.89200
C1090       C  0.60869876  0.08706271  0.32646821     1.10800
O1091       O  0.94416318  0.47615167  0.28268616    -1.37000
O1092       O  0.57931378  0.09209638  0.24408485    -0.90700
O1093       O  0.86517540  0.44941821  0.24428487    -0.91400
O1094       O  0.94063330  0.43152274  0.21483411    -0.80200
O1095       O  0.98957319  0.05388346  0.25324082    -1.02300
C1096       C  0.55606035  0.46876624  0.22388242     1.20900
O1097       O  0.98095169  0.42843120  0.28236920    -1.37200
Mn1098     Mn  0.98501689  0.47247019  0.31719668     1.82100
O1099       O  0.52585096  0.47092301  0.21446086    -0.79200
O1100       O  0.61160429  0.05648674  0.24726612    -0.88600
C1101       C  0.55638586  0.46720857  0.33999757     1.12000
C1102       C  0.60679412  0.08449217  0.23503810     1.06700
O1103       O  0.94096163  0.43229974  0.34986803    -0.80200
O1104       O  0.52844375  0.01299483  0.28209447    -1.33900
O1105       O  0.90156503  0.39732945  0.31254860    -0.99400
C1106       C  0.97328745  0.34848732  0.23662342     1.05400
Mn1107     Mn  0.58361711  0.01177429  0.28238768     1.48600
O1108       O  0.94110022  0.34540582  0.24849291    -0.88600
Mn1109     Mn  0.88494642  0.42545038  0.28151493     1.49600
O1110       O  0.90196555  0.01583136  0.32026023    -0.92500
C1111       C  0.98713113  0.04842773  0.22467043     1.18600
C1112       C  0.87058776  0.48271598  0.32806383     1.10100
Mn1113     Mn  0.98432714  0.47275203  0.24742185     1.81000
O1114       O  0.55953940  0.46573890  0.31140692    -0.97600
Mn1115     Mn  0.94549261  0.03276671  0.28399760     1.49300
C1116       C  0.87335935  0.48517981  0.23622424     1.07200
Mn1117     Mn  0.53176200  0.41995403  0.28189094     1.49900
C1118       C  0.97443385  0.34886562  0.32912800     1.10100
O1119       O  0.90269264  0.39677211  0.25281796    -1.03400
O1120       O  0.61140943  0.05619166  0.31827924    -0.93100
C1121       C  0.90848586  0.40103131  0.22415199     1.21400
O1122       O  0.55954443  0.46645809  0.25253066    -1.03800
O1123       O  0.58216023  0.09462258  0.31517577    -0.91200
O1124       O  0.50907059  0.37443585  0.31783248    -0.90800
O1125       O  0.86218128  0.44875933  0.31596401    -0.90800
Mn1126     Mn  0.53620388  0.07191079  0.28129347     1.47900
O1127       O  0.52641584  0.46944267  0.34990654    -0.79300
C1128       C  0.90774253  0.40296617  0.34113661     1.14400
O1129       O  0.98538790  0.01638291  0.21488350    -0.78100
O1130       O  0.98921995  0.01637337  0.34999553    -0.77700
Mn1131     Mn  0.92440100  0.37348619  0.28333689     1.51100
O1132       O  0.50855714  0.37505131  0.24586038    -0.90000
O1133       O  0.99213574  0.05517403  0.31259413    -0.97500
O1134       O  0.94155712  0.34636494  0.31930044    -0.92600
C1135       C  0.99190093  0.04917908  0.34116119     1.12200
C1136       C  0.98962294  0.14123482  0.39920988    -0.07100
C1137       C  0.97276413  0.10143025  0.41128549    -0.18300
C1138       C  0.97419486  0.07072909  0.39377254     0.10100
C1139       C  0.99328396  0.08001508  0.36348708    -0.07100
C1140       C  0.51227925  0.12033946  0.35255325    -0.18300
C1141       C  0.51116114  0.15087097  0.37007697     0.10100
S1142       S  0.94897078  0.02026256  0.41063427    -0.33300
S1143       S  0.53901222  0.20177309  0.35408419    -0.33300
H1144       H  0.55173270  0.22056352  0.38399826     0.28100
H1145       H  0.92827583  0.50120404  0.38273590     0.28100
H1146       H  0.95644148  0.09359854  0.43374580     0.18700
H1147       H  0.52817947  0.12833718  0.32987292     0.18700
C1148       C  0.96635700  0.25702561  0.39507307    -0.07100
C1149       C  0.99565947  0.29762996  0.39982146    -0.18300
C1150       C  0.99866955  0.32836535  0.37948257     0.10100
C1151       C  0.97141283  0.31873848  0.35358859    -0.07100
C1152       C  0.94090279  0.27798349  0.34977159    -0.18300
C1153       C  0.93823967  0.24716411  0.36999073     0.10100
S1154       S  0.03811485  0.37873334  0.38857436    -0.33300
S1155       S  0.89864918  0.19583905  0.36230539    -0.33300
H1156       H  0.89455633  0.18201668  0.39401573     0.28100
H1157       H  0.01737058  0.39797842  0.37723332     0.28100
H1158       H  0.01741599  0.30534659  0.41898450     0.18700
H1159       H  0.91963010  0.26979577  0.33021423     0.18700
C1160       C  0.96572588  0.13070634  0.16795179    -0.07100
C1161       C  0.49210839  0.14496833  0.19402221    -0.18300
C1162       C  0.50069616  0.11923957  0.21210982     0.10100
C1163       C  0.98309246  0.07774409  0.20362851    -0.07100
C1164       C  0.95750744  0.06354530  0.17688535    -0.18300
C1165       C  0.94801751  0.08936681  0.15935724     0.10100
S1166       S  0.53510784  0.14077107  0.24545414    -0.33300
S1167       S  0.91107542  0.06717094  0.12795423    -0.33300
H1168       H  0.89386986  0.09209763  0.13262382     0.28100
H1169       H  0.53953315  0.17981526  0.24444649     0.28100
H1170       H  0.50638078  0.17682174  0.20013658     0.18700
H1171       H  0.94307288  0.03170775  0.17065974     0.18700
C1172       C  0.95709693  0.25456822  0.17014164    -0.07100
C1173       C  0.48943907  0.29419356  0.16583598    -0.18300
C1174       C  0.49537406  0.32565402  0.18646905     0.10100
C1175       C  0.96824391  0.31778070  0.21220466    -0.07100
C1176       C  0.93506866  0.27815789  0.21570220    -0.18300
C1177       C  0.92928742  0.24669936  0.19519658     0.10100
S1178       S  0.53837031  0.37470927  0.17828035    -0.33300
S1179       S  0.88598347  0.19712524  0.20249671    -0.33300
H1180       H  0.88050280  0.18438640  0.17053768     0.28100
H1181       H  0.51907941  0.39643568  0.18707424     0.28100
H1182       H  0.51116416  0.30043760  0.14685465     0.18700
H1183       H  0.91381935  0.27121836  0.23517474     0.18700
C1184       C  0.96952141  0.19709937  0.49911738    -0.07100
C1185       C  0.48930110  0.23382712  0.01598943    -0.18300
C1186       C  0.48912012  0.23440462  0.04946782     0.10100
C1187       C  0.96711378  0.19732513  0.06672529    -0.07100
C1188       C  0.94803157  0.16065594  0.04980035    -0.18300
C1189       C  0.94871457  0.15994969  0.01647235     0.10100
S1190       S  0.51952567  0.28281533  0.06850794    -0.33300
S1191       S  0.92109352  0.11096874  0.99772809    -0.33300
H1192       H  0.90539399  0.12533432  0.47271430     0.28100
H1193       H  0.53362274  0.26748612  0.09296886     0.28100
H1194       H  0.50620078  0.26221137  0.00302443     0.18700
H1195       H  0.93143447  0.13212366  0.06263204     0.18700
C1196       C  0.78816708  0.49063858  0.39512777    -0.07100
C1197       C  0.77397276  0.45847442  0.37339693    -0.18300
C1198       C  0.79980798  0.45516337  0.35145293     0.10100
C1199       C  0.84186565  0.48391072  0.35167994    -0.07100
C1200       C  0.85611347  0.01572165  0.37392991    -0.18300
C1201       C  0.82976798  0.01956546  0.39528254     0.10100
S1202       S  0.77598583  0.41552099  0.32216416    -0.33300
S1203       S  0.85090738  0.06379081  0.42032849    -0.33300
H1204       H  0.81705882  0.06936631  0.41883858     0.28100
H1205       H  0.79569707  0.44148859  0.29608816     0.28100
H1206       H  0.74189498  0.43634475  0.37268752     0.18700
H1207       H  0.88788270  0.03868386  0.37403081     0.18700
C1208       C  0.58916832  0.46969504  0.36094823    -0.07100
C1209       C  0.59406528  0.98540745  0.39185251    -0.18300
C1210       C  0.62616900  0.99031232  0.41149378     0.10100
C1211       C  0.65517566  0.48055751  0.39978597    -0.07100
C1212       C  0.64922385  0.46350032  0.36925929    -0.18300
C1213       C  0.61698287  0.45777253  0.34988954     0.10100
S1214       S  0.62891143  0.01066576  0.45064018    -0.33300
S1215       S  0.61118882  0.43274841  0.31195596    -0.33300
H1216       H  0.65044610  0.43799755  0.31004745     0.28100
H1217       H  0.62366246  0.97531759  0.46602702     0.28100
H1218       H  0.57302431  0.99452069  0.40071330     0.18700
H1219       H  0.66984156  0.45388107  0.36043503     0.18700
C1220       C  0.79563637  0.50120031  0.17008313    -0.07100
C1221       C  0.80990016  0.47454778  0.16239141    -0.18300
C1222       C  0.83659055  0.46971271  0.18263644     0.10100
C1223       C  0.84859768  0.49115807  0.21173636    -0.07100
C1224       C  0.83626502  0.51968760  0.21827219    -0.18300
C1225       C  0.81046795  0.52525070  0.19772536     0.10100
S1226       S  0.85498449  0.43686933  0.16936231    -0.33300
S1227       S  0.79765882  0.06354611  0.20814835    -0.33300
H1228       H  0.79302560  0.07312325  0.17651799     0.28100
H1229       H  0.89306731  0.45876208  0.18403848     0.28100
H1230       H  0.79928638  0.45647294  0.14090772     0.18700
H1231       H  0.84610888  0.03727778  0.24007444     0.18700
C1232       C  0.65796580  0.48110240  0.16886740    -0.07100
C1233       C  0.63063164  0.99142316  0.15463993    -0.18300
C1234       C  0.59600100  0.98616710  0.17095592     0.10100
C1235       C  0.58878850  0.47127862  0.20274177    -0.07100
C1236       C  0.61583619  0.46041289  0.21647061    -0.18300
C1237       C  0.64940117  0.46431884  0.20004754     0.10100
S1238       S  0.56311526  0.99982631  0.15016987    -0.33300
S1239       S  0.67859738  0.44543067  0.22037310    -0.33300
H1240       H  0.68138580  0.42487035  0.19349477     0.28100
H1241       H  0.52837207  0.96178767  0.15542704     0.28100
H1242       H  0.63637635  0.00393570  0.13068556     0.18700
H1243       H  0.61053086  0.44794660  0.24042066     0.18700
C1244       C  0.73027308  0.49574310  0.49984875    -0.07100
C1245       C  0.69527381  0.46722159  0.01614612    -0.18300
C1246       C  0.69422866  0.46449293  0.04945526     0.10100
C1247       C  0.72859943  0.49174722  0.06727950    -0.07100
C1248       C  0.76370477  0.01942728  0.05096825    -0.18300
C1249       C  0.76471872  0.02201860  0.01759909     0.10100
S1250       S  0.64892399  0.42407996  0.06749883    -0.33300
S1251       S  0.81008440  0.06184510  0.99940409    -0.33300
H1252       H  0.78927029  0.07107270  0.47506808     0.28100
H1253       H  0.66938203  0.41557034  0.09165059     0.28100
H1254       H  0.66863000  0.44629247  0.50288655     0.18700
H1255       H  0.79021151  0.04063417  0.06433758     0.18700
C1256       C  0.87640123  0.37445949  0.36378862    -0.07100
C1257       C  0.83574819  0.35717225  0.35425906    -0.18300
C1258       C  0.80440966  0.32646189  0.37204245     0.10100
C1259       C  0.81361159  0.31098569  0.39953453    -0.07100
C1260       C  0.85376697  0.33006967  0.41049216    -0.18300
C1261       C  0.88520303  0.36159683  0.39301138     0.10100
S1262       S  0.75331699  0.30925823  0.35876866    -0.33300
S1263       S  0.93573752  0.38177084  0.40829975    -0.33300
H1264       H  0.95185451  0.38107839  0.37852827     0.28100
H1265       H  0.73617993  0.30090909  0.38954772     0.28100
H1266       H  0.82822084  0.36756021  0.33254409     0.18700
H1267       H  0.86105210  0.31892536  0.43191494     0.18700
C1268       C  0.63878197  0.11721846  0.34890922    -0.07100
C1269       C  0.65288009  0.10456066  0.37518920    -0.18300
C1270       C  0.68131581  0.13289992  0.39664729     0.10100
C1271       C  0.69537284  0.17484327  0.39224817    -0.07100
C1272       C  0.68110160  0.18715428  0.36605560    -0.18300
C1273       C  0.65403001  0.15936146  0.34419239     0.10100
S1274       S  0.69997688  0.11394087  0.42798251    -0.33300
S1275       S  0.64245986  0.18035878  0.30964704    -0.33300
H1276       H  0.64537645  0.15384369  0.28783376     0.28100
H1277       H  0.73999983  0.14657460  0.42689793     0.28100
H1278       H  0.64207729  0.07249914  0.37882679     0.18700
H1279       H  0.69190232  0.21916601  0.36206543     0.18700
C1280       C  0.81476927  0.30713783  0.16619830    -0.07100
C1281       C  0.85437967  0.32962489  0.15394595    -0.18300
C1282       C  0.88564362  0.36096807  0.17162354     0.10100
C1283       C  0.87734979  0.37045958  0.20237225    -0.07100
C1284       C  0.83722104  0.34918085  0.21369801    -0.18300
C1285       C  0.80602597  0.31864776  0.19589825     0.10100
S1286       S  0.93551308  0.38590841  0.15425693    -0.33300
S1287       S  0.75547309  0.29694008  0.21210626    -0.33300
H1288       H  0.73665479  0.29263677  0.18233726     0.28100
H1289       H  0.95417095  0.38418724  0.18257657     0.28100
H1290       H  0.86153067  0.32152108  0.13106904     0.18700
H1291       H  0.82976382  0.35687645  0.23663614     0.18700
C1292       C  0.69749735  0.16934692  0.17025062    -0.07100
C1293       C  0.65635953  0.15362716  0.16303468    -0.18300
C1294       C  0.62589544  0.12460029  0.18279994     0.10100
C1295       C  0.63661491  0.11110936  0.21073755    -0.07100
C1296       C  0.67781599  0.12543092  0.21698876    -0.18300
C1297       C  0.70820721  0.15403926  0.19706614     0.10100
S1298       S  0.57427061  0.10569082  0.17055330    -0.33300
S1299       S  0.76002869  0.16954694  0.20710123    -0.33300
H1300       H  0.77416456  0.17577650  0.17541871     0.28100
H1301       H  0.55917049  0.06711345  0.18450789     0.28100
H1302       H  0.64785355  0.16480215  0.14226479     0.18700
H1303       H  0.68653093  0.11499629  0.23808428     0.18700
C1304       C  0.74939931  0.23645273  0.49832251    -0.07100
C1305       C  0.73882303  0.19972608  0.01441465    -0.18300
C1306       C  0.74085889  0.19831052  0.04780467     0.10100
C1307       C  0.75295745  0.23403116  0.06586518    -0.07100
C1308       C  0.76260760  0.27017168  0.04966684    -0.18300
C1309       C  0.76029386  0.27153385  0.01643430     0.10100
S1310       S  0.73015738  0.15056377  0.06545673    -0.33300
S1311       S  0.76950779  0.31928672  0.49913137    -0.33300
H1312       H  0.73931564  0.30122086  0.47564355     0.28100
H1313       H  0.76171307  0.16804825  0.08791295     0.28100
H1314       H  0.73063645  0.17247955  0.00087370     0.18700
H1315       H  0.77091414  0.29752868  0.06309381     0.18700
C1316       C  0.72813077  0.20386443  0.65108293     0.79200
N1317       N  0.75694800  0.23747435  0.66602209    -0.79100
C1318       C  0.78427342  0.27036178  0.64911563     0.81600
N1319       N  0.78329728  0.26887237  0.61668555    -0.79100
C1320       C  0.75470431  0.23511282  0.60131895     0.81700
N1321       N  0.72666513  0.20306162  0.61872129    -0.80800
C1322       C  0.72642055  0.20726753  0.91254644     0.79200
N1323       N  0.75550423  0.24164988  0.89824183    -0.79100
C1324       C  0.78269510  0.27356515  0.91568405     0.81600
N1325       N  0.78099151  0.27090385  0.94791854    -0.79100
C1326       C  0.75153134  0.23723823  0.96284853     0.81700
N1327       N  0.72427300  0.20516854  0.94503837    -0.80800
C1328       C  0.76198169  0.49969120  0.65156240     0.79200
N1329       N  0.76167902  0.49802779  0.61919984    -0.79100
C1330       C  0.72859074  0.49266228  0.60263776     0.81600
N1331       N  0.69552517  0.48825820  0.61873447    -0.79100
C1332       C  0.69521991  0.48895225  0.65113816     0.81700
N1333       N  0.72883338  0.49531497  0.66718458    -0.80800
C1334       C  0.75755172  0.49365640  0.91486199     0.79200
N1335       N  0.76032877  0.49672811  0.94719985    -0.79100
C1336       C  0.72939724  0.49564041  0.96450374     0.81600
N1337       N  0.69562591  0.49078167  0.94930619    -0.79100
C1338       C  0.69265668  0.48788016  0.91708627     0.81700
N1339       N  0.72375569  0.48912234  0.90027247    -0.80800
C1340       C  0.95660577  0.22146667  0.65116986     0.79200
N1341       N  0.96050964  0.22429156  0.61885278    -0.79100
C1342       C  0.96357356  0.19527244  0.60204973     0.81600
N1343       N  0.96308805  0.16364763  0.61790063    -0.79100
C1344       C  0.95952894  0.16082782  0.65013690     0.81700
N1345       N  0.95658937  0.18998178  0.66656280    -0.80800
C1346       C  0.96862097  0.22543912  0.91416861     0.79200
N1347       N  0.97512842  0.19769150  0.89908603    -0.79100
C1348       C  0.98125043  0.17059513  0.91592949     0.81600
N1349       N  0.97932293  0.17048393  0.94828252    -0.79100
C1350       C  0.97216950  0.19772656  0.96377692     0.81700
N1351       N  0.96778114  0.22585751  0.94660443    -0.80800
O1352       O  0.90090718  0.01685436  0.74951178    -0.89200
C1353       C  0.60878238  0.08710378  0.82628431     1.10800
O1354       O  0.94426971  0.47610945  0.78268700    -1.37000
O1355       O  0.57929378  0.09205528  0.74393938    -0.90700
O1356       O  0.86529824  0.44948907  0.74429608    -0.91400
O1357       O  0.94073798  0.43152976  0.71481109    -0.80200
O1358       O  0.98964370  0.05383555  0.75314745    -1.02300
C1359       C  0.55603726  0.46865224  0.72385477     1.20900
O1360       O  0.98099363  0.42832520  0.78233634    -1.37200
Mn1361     Mn  0.98510160  0.47235755  0.81717858     1.82100
O1362       O  0.52583421  0.47084235  0.71445333    -0.79200
O1363       O  0.61157317  0.05643264  0.74708976    -0.88600
C1364       C  0.55643382  0.46711058  0.83996270     1.12000
C1365       C  0.60674613  0.08442839  0.73485970     1.06700
O1366       O  0.94102143  0.43217740  0.84983842    -0.80200
O1367       O  0.52848245  0.01299923  0.78201270    -1.33900
O1368       O  0.90159202  0.39726753  0.81251430    -0.99400
C1369       C  0.97326024  0.34836214  0.73658776     1.05400
Mn1370     Mn  0.58365584  0.01178150  0.78227287     1.48600
O1371       O  0.94107894  0.34533761  0.74842004    -0.88600
Mn1372     Mn  0.88503413  0.42545281  0.78149795     1.49600
O1373       O  0.90202198  0.01581224  0.82018069    -0.92500
C1374       C  0.98718262  0.04836301  0.72458000     1.18600
C1375       C  0.87072171  0.48269366  0.82810668     1.10100
Mn1376     Mn  0.98441790  0.47268753  0.74741324     1.81000
O1377       O  0.55954367  0.46562041  0.81137023    -0.97600
Mn1378     Mn  0.94556182  0.03272737  0.78390896     1.49300
C1379       C  0.87347861  0.48526579  0.73628993     1.07200
Mn1380     Mn  0.53173327  0.41982282  0.78186952     1.49900
C1381       C  0.97431342  0.34871016  0.82910306     1.10100
O1382       O  0.90277001  0.39678665  0.75278356    -1.03400
O1383       O  0.61147471  0.05623139  0.81809101    -0.93100
C1384       C  0.90858637  0.40105287  0.72412368     1.21400
O1385       O  0.55952063  0.46632245  0.75249888    -1.03800
O1386       O  0.58222597  0.09466851  0.81503141    -0.91200
O1387       O  0.50903787  0.37434637  0.81783912    -0.90800
O1388       O  0.86229715  0.44875486  0.81596577    -0.90800
Mn1389     Mn  0.53622207  0.07190788  0.78117720     1.47900
O1390       O  0.52645698  0.46931421  0.84990212    -0.79300
C1391       C  0.90777292  0.40288376  0.84110548     1.14400
O1392       O  0.98544476  0.01631915  0.71479902    -0.78100
O1393       O  0.98928827  0.01633912  0.84991541    -0.77700
Mn1394     Mn  0.92440368  0.37342337  0.78328011     1.51100
O1395       O  0.50848291  0.37489350  0.74584411    -0.90000
O1396       O  0.99219279  0.05508563  0.81248439    -0.97500
O1397       O  0.94147517  0.34624267  0.81922565    -0.92600
C1398       C  0.99191850  0.04911364  0.84105396     1.12200
C1399       C  0.98907932  0.14097284  0.89899630    -0.07100
C1400       C  0.97248695  0.10121908  0.91113069    -0.18300
C1401       C  0.97407292  0.07058587  0.89363991     0.10100
C1402       C  0.99310023  0.07989796  0.86333212    -0.07100
C1403       C  0.51193184  0.12036334  0.85223938    -0.18300
C1404       C  0.51083192  0.15091905  0.86974749     0.10100
S1405       S  0.94909011  0.02014521  0.91054737    -0.33300
S1406       S  0.53823800  0.20171173  0.85348603    -0.33300
H1407       H  0.55141454  0.22073557  0.88327474     0.28100
H1408       H  0.92812258  0.50087003  0.88242719     0.28100
H1409       H  0.95625456  0.09336115  0.93363199     0.18700
H1410       H  0.52756803  0.12828963  0.82944909     0.18700
C1411       C  0.96584236  0.25678059  0.89513597    -0.07100
C1412       C  0.99529312  0.29734713  0.89983985    -0.18300
C1413       C  0.99842452  0.32811853  0.87947927     0.10100
C1414       C  0.97117591  0.31856105  0.85359102    -0.07100
C1415       C  0.94049953  0.27785738  0.84983869    -0.18300
C1416       C  0.93768863  0.24700817  0.87009635     0.10100
S1417       S  0.03799118  0.37844674  0.88853596    -0.33300
S1418       S  0.89786266  0.19575588  0.86251883    -0.33300
H1419       H  0.89384634  0.18197729  0.89423718     0.28100
H1420       H  0.01731608  0.39778415  0.87723044     0.28100
H1421       H  0.01706776  0.30499802  0.91897939     0.18700
H1422       H  0.91920185  0.26972615  0.83030560     0.18700
C1423       C  0.96570218  0.13060307  0.66788543    -0.07100
C1424       C  0.49203407  0.14489961  0.69392209    -0.18300
C1425       C  0.50082758  0.11923509  0.71190494     0.10100
C1426       C  0.98310437  0.07765270  0.70353765    -0.07100
C1427       C  0.95742134  0.06342491  0.67685248    -0.18300
C1428       C  0.94791481  0.08924226  0.65933624     0.10100
S1429       S  0.53532464  0.14079775  0.74519487    -0.33300
S1430       S  0.91084988  0.06702776  0.62801923    -0.33300
H1431       H  0.89373975  0.09203708  0.63269872     0.28100
H1432       H  0.54638733  0.18167870  0.74010885     0.28100
H1433       H  0.50603859  0.17669036  0.70018099     0.18700
H1434       H  0.94292437  0.03156758  0.67066673     0.18700
C1435       C  0.95709162  0.25446190  0.67012657    -0.07100
C1436       C  0.48890353  0.29398023  0.66568174    -0.18300
C1437       C  0.49497063  0.32548239  0.68632319     0.10100
C1438       C  0.96821374  0.31766820  0.71216370    -0.07100
C1439       C  0.93496327  0.27807907  0.71559728    -0.18300
C1440       C  0.92918753  0.24662200  0.69509585     0.10100
S1441       S  0.53788818  0.37454976  0.67796455    -0.33300
S1442       S  0.88576196  0.19709414  0.70227203    -0.33300
H1443       H  0.88041248  0.18441298  0.67030070     0.28100
H1444       H  0.51886594  0.39636559  0.68720831     0.28100
H1445       H  0.51047789  0.30021051  0.64658190     0.18700
H1446       H  0.91364434  0.27116338  0.73501537     0.18700
C1447       C  0.96929115  0.19679699  0.99909058    -0.07100
C1448       C  0.48873688  0.23356712  0.51598504    -0.18300
C1449       C  0.48853452  0.23412914  0.54946175     0.10100
C1450       C  0.96718632  0.19738142  0.56672982    -0.07100
C1451       C  0.94774099  0.16079975  0.54972361    -0.18300
C1452       C  0.94848745  0.16022122  0.51639782     0.10100
S1453       S  0.51896509  0.28252120  0.56851879    -0.33300
S1454       S  0.92039221  0.11139326  0.49750030    -0.33300
H1455       H  0.90552445  0.12442081  0.97302006     0.28100
H1456       H  0.53305039  0.26716212  0.59296667     0.28100
H1457       H  0.50564983  0.26196073  0.50303034     0.18700
H1458       H  0.93082215  0.13225563  0.56249312     0.18700
C1459       C  0.78826818  0.49052553  0.89520651    -0.07100
C1460       C  0.77412793  0.45825366  0.87358669    -0.18300
C1461       C  0.79996634  0.45497032  0.85162924     0.10100
C1462       C  0.84199261  0.48386117  0.85174145    -0.07100
C1463       C  0.85612424  0.01573800  0.87383659    -0.18300
C1464       C  0.82976815  0.01956707  0.89519555     0.10100
S1465       S  0.77615684  0.41518189  0.82245384    -0.33300
S1466       S  0.85087923  0.06382335  0.92020830    -0.33300
H1467       H  0.81695794  0.06928601  0.91880166     0.28100
H1468       H  0.79561215  0.44110042  0.79629829     0.28100
H1469       H  0.74207190  0.43602496  0.87295782     0.18700
H1470       H  0.88788624  0.03871675  0.87392715     0.18700
C1471       C  0.58927471  0.46966797  0.86088052    -0.07100
C1472       C  0.59408581  0.98541705  0.89183718    -0.18300
C1473       C  0.62620002  0.99033695  0.91147738     0.10100
C1474       C  0.65531703  0.48058249  0.89969996    -0.07100
C1475       C  0.64938509  0.46355685  0.86916337    -0.18300
C1476       C  0.61714275  0.45782895  0.84979446     0.10100
S1477       S  0.62891989  0.01064694  0.95063883    -0.33300
S1478       S  0.61146509  0.43296389  0.81180397    -0.33300
H1479       H  0.65085484  0.43856631  0.80981423     0.28100
H1480       H  0.62364597  0.97527600  0.96600086     0.28100
H1481       H  0.57299744  0.99445334  0.90071994     0.18700
H1482       H  0.67001948  0.45396610  0.86032605     0.18700
C1483       C  0.79584619  0.50150085  0.67018217    -0.07100
C1484       C  0.81013079  0.47487582  0.66244329    -0.18300
C1485       C  0.83675352  0.46993981  0.68269475     0.10100
C1486       C  0.84872033  0.49129733  0.71183309    -0.07100
C1487       C  0.83636576  0.51979578  0.71843187    -0.18300
C1488       C  0.81059930  0.52542831  0.69789748     0.10100
S1489       S  0.85506501  0.43702856  0.66940657    -0.33300
S1490       S  0.79776273  0.06363309  0.70830909    -0.33300
H1491       H  0.79319344  0.07335930  0.67670909     0.28100
H1492       H  0.89313869  0.45882977  0.68410970     0.28100
H1493       H  0.79956033  0.45687196  0.64092117     0.18700
H1494       H  0.84613303  0.03721634  0.74015739     0.18700
C1495       C  0.65813941  0.48132653  0.66889819    -0.07100
C1496       C  0.63076502  0.99153038  0.65459297    -0.18300
C1497       C  0.59610490  0.98621011  0.67090176     0.10100
C1498       C  0.58879712  0.47121627  0.70270637    -0.07100
C1499       C  0.61585396  0.46034824  0.71642253    -0.18300
C1500       C  0.64951464  0.46441933  0.70003471     0.10100
S1501       S  0.56319777  0.99984031  0.65011588    -0.33300
S1502       S  0.67877102  0.44559090  0.72034875    -0.33300
H1503       H  0.68170468  0.42516328  0.69343888     0.28100
H1504       H  0.52847205  0.96178473  0.65536187     0.28100
H1505       H  0.63650543  0.00405782  0.63064604     0.18700
H1506       H  0.61050398  0.44779048  0.74033703     0.18700
C1507       C  0.73025679  0.49577628  0.99981421    -0.07100
C1508       C  0.69521396  0.46740901  0.51622227    -0.18300
C1509       C  0.69420994  0.46469452  0.54953473     0.10100
C1510       C  0.72872030  0.49173814  0.56733196    -0.07100
C1511       C  0.76380597  0.02012049  0.55091413    -0.18300
C1512       C  0.76473310  0.02266679  0.51754172     0.10100
S1513       S  0.64873914  0.42456549  0.56761000    -0.33300
S1514       S  0.80981940  0.06281450  0.49927422    -0.33300
H1515       H  0.78979385  0.07063094  0.97531262     0.28100
H1516       H  0.66904650  0.41577086  0.59170790     0.28100
H1517       H  0.66880344  0.44594194  0.00277864     0.18700
H1518       H  0.79021469  0.04155626  0.56425978     0.18700
C1519       C  0.87640132  0.37439807  0.86376081    -0.07100
C1520       C  0.83575569  0.35704112  0.85419149    -0.18300
C1521       C  0.80441083  0.32635799  0.87199296     0.10100
C1522       C  0.81360205  0.31095170  0.89953561    -0.07100
C1523       C  0.85373789  0.33013180  0.91054217    -0.18300
C1524       C  0.88517423  0.36165078  0.89305192     0.10100
S1525       S  0.75332232  0.30910777  0.85868421    -0.33300
S1526       S  0.93569079  0.38195506  0.90840464    -0.33300
H1527       H  0.95177658  0.38089392  0.87870538     0.28100
H1528       H  0.73616296  0.30077441  0.88945578     0.28100
H1529       H  0.82823782  0.36735885  0.83243250     0.18700
H1530       H  0.86101783  0.31905911  0.93200900     0.18700
C1531       C  0.63891284  0.11722925  0.84869866    -0.07100
C1532       C  0.65304292  0.10452193  0.87492587    -0.18300
C1533       C  0.68151429  0.13281985  0.89637948     0.10100
C1534       C  0.69552047  0.17476247  0.89206330    -0.07100
C1535       C  0.68126864  0.18712728  0.86588427    -0.18300
C1536       C  0.65421326  0.15937494  0.84399060     0.10100
S1537       S  0.70032329  0.11381382  0.92756904    -0.33300
S1538       S  0.64275361  0.18040873  0.80940842    -0.33300
H1539       H  0.64554457  0.15379195  0.78762498     0.28100
H1540       H  0.74030627  0.14652466  0.92648667     0.28100
H1541       H  0.64224989  0.07245612  0.87851666     0.18700
H1542       H  0.69207611  0.21914341  0.86192530     0.18700
C1543       C  0.81495707  0.30711014  0.66622820    -0.07100
C1544       C  0.85463164  0.32937928  0.65406785    -0.18300
C1545       C  0.88588112  0.36075592  0.67172008     0.10100
C1546       C  0.87749468  0.37047961  0.70234817    -0.07100
C1547       C  0.83732376  0.34938110  0.71358823    -0.18300
C1548       C  0.80614865  0.31881916  0.69580524     0.10100
S1549       S  0.93582701  0.38542781  0.65448476    -0.33300
S1550       S  0.75553968  0.29734364  0.71184895    -0.33300
H1551       H  0.73687155  0.29297413  0.68200257     0.28100
H1552       H  0.95438476  0.38409591  0.68297194     0.28100
H1553       H  0.86182345  0.32109313  0.63128436     0.18700
H1554       H  0.82982403  0.35724877  0.73643821     0.18700
C1555       C  0.69744699  0.16944205  0.67016256    -0.07100
C1556       C  0.65631100  0.15374028  0.66293948    -0.18300
C1557       C  0.62583751  0.12462292  0.68265055     0.10100
C1558       C  0.63654871  0.11104758  0.71054765    -0.07100
C1559       C  0.67774594  0.12533380  0.71678247    -0.18300
C1560       C  0.70814142  0.15400756  0.69690273     0.10100
S1561       S  0.57422086  0.10569287  0.67036964    -0.33300
S1562       S  0.75995214  0.16941690  0.70688823    -0.33300
H1563       H  0.77404733  0.17568064  0.67519266     0.28100
H1564       H  0.55911361  0.06712083  0.68433482     0.28100
H1565       H  0.64781638  0.16498316  0.64220796     0.18700
H1566       H  0.68645614  0.11482461  0.73783410     0.18700
C1567       C  0.74936982  0.23616913  0.99826569    -0.07100
C1568       C  0.73900206  0.20004197  0.51445478    -0.18300
C1569       C  0.74107860  0.19863319  0.54783078     0.10100
C1570       C  0.75303225  0.23431455  0.56589043    -0.07100
C1571       C  0.76257010  0.27044052  0.54971615    -0.18300
C1572       C  0.76024674  0.27180375  0.51648451     0.10100
S1573       S  0.73064213  0.15096335  0.56547291    -0.33300
S1574       S  0.76965418  0.31905492  0.99909373    -0.33300
H1575       H  0.73938739  0.30103414  0.97565566     0.28100
H1576       H  0.76213313  0.16857514  0.58797465     0.28100
H1577       H  0.73091176  0.17282161  0.50090738     0.18700
H1578       H  0.77079743  0.29776913  0.56316000     0.18700
C1579       C  0.72821543  0.70365936  0.15107940     0.79200
N1580       N  0.75694614  0.73731031  0.16602033    -0.79100
C1581       C  0.78418817  0.77025637  0.14913114     0.81600
N1582       N  0.78323052  0.76877028  0.11669317    -0.79100
C1583       C  0.75473417  0.73494708  0.10131742     0.81700
N1584       N  0.72676305  0.70284602  0.11871758    -0.80800
C1585       C  0.72641860  0.70728107  0.41271791     0.79200
N1586       N  0.75553367  0.74163860  0.39840023    -0.79100
C1587       C  0.78273326  0.77356164  0.41583509     0.81600
N1588       N  0.78100394  0.77094689  0.44806813    -0.79100
C1589       C  0.75151697  0.73731046  0.46300273     0.81700
N1590       N  0.72425247  0.70522931  0.44520779    -0.80800
C1591       C  0.76170829  0.99925792  0.15153555     0.79200
N1592       N  0.76139884  0.99756568  0.11917792    -0.79100
C1593       C  0.72834371  0.99227713  0.10261185     0.81600
N1594       N  0.69531240  0.98798045  0.11869730    -0.79100
C1595       C  0.69501884  0.98870670  0.15110086     0.81700
N1596       N  0.72860137  0.99499078  0.16715254    -0.80800
C1597       C  0.75733640  0.99342806  0.41484802     0.79200
N1598       N  0.76018339  0.99655144  0.44717814    -0.79100
C1599       C  0.72924866  0.99538833  0.46452144     0.81600
N1600       N  0.69540243  0.99040688  0.44937097    -0.79100
C1601       C  0.69236806  0.98745639  0.41715390     0.81700
N1602       N  0.72346985  0.98877064  0.40029997    -0.80800
C1603       C  0.95671302  0.72163047  0.15117433     0.79200
N1604       N  0.96049099  0.72438026  0.11884330    -0.79100
C1605       C  0.96359384  0.69537261  0.10204596     0.81600
N1606       N  0.96325606  0.66383809  0.11792479    -0.79100
C1607       C  0.95979540  0.66107875  0.15016510     0.81700
N1608       N  0.95682749  0.69022043  0.16658234    -0.80800
C1609       C  0.96913445  0.72567241  0.41422914     0.79200
N1610       N  0.97570136  0.69793640  0.39919673    -0.79100
C1611       C  0.98182305  0.67087116  0.41608382     0.81600
N1612       N  0.97983149  0.67077195  0.44843156    -0.79100
C1613       C  0.97265319  0.69802717  0.46387500     0.81700
N1614       N  0.96825501  0.72612652  0.44666545    -0.80800
O1615       O  0.90088584  0.51692163  0.24949046    -0.89200
C1616       C  0.60882116  0.58709079  0.32641629     1.10800
O1617       O  0.94411890  0.97611454  0.28275509    -1.37000
O1618       O  0.57943772  0.59211346  0.24403614    -0.90700
O1619       O  0.86515964  0.94936892  0.24435857    -0.91400
O1620       O  0.94055264  0.93148007  0.21490651    -0.80200
O1621       O  0.98962257  0.55390409  0.25319202    -1.02300
C1622       C  0.55605973  0.96882064  0.22387357     1.20900
O1623       O  0.98087728  0.92837309  0.28242578    -1.37200
Mn1624     Mn  0.98496974  0.97243360  0.31724876     1.82100
O1625       O  0.52582488  0.97094503  0.21446661    -0.79200
O1626       O  0.61163871  0.55641700  0.24719672    -0.88600
C1627       C  0.55637847  0.96710800  0.33997649     1.12000
C1628       C  0.60686248  0.58444198  0.23496589     1.06700
O1629       O  0.94091961  0.93227076  0.34993311    -0.80200
O1630       O  0.52850747  0.51304143  0.28206733    -1.33900
O1631       O  0.90149941  0.89725141  0.31263667    -0.99400
C1632       C  0.97319180  0.84841542  0.23666850     1.05400
Mn1633     Mn  0.58364541  0.51176917  0.28236258     1.48600
O1634       O  0.94100448  0.84532084  0.24854879    -0.88600
Mn1635     Mn  0.88491598  0.92539692  0.28158826     1.49600
O1636       O  0.90197699  0.51587305  0.32018075    -0.92500
C1637       C  0.98722192  0.54847541  0.22462006     1.18600
C1638       C  0.87057624  0.98266070  0.32812016     1.10100
Mn1639     Mn  0.98424787  0.97270499  0.24747785     1.81000
O1640       O  0.55955993  0.96568406  0.31138582    -0.97600
Mn1641     Mn  0.94552022  0.53279195  0.28392659     1.49300
C1642       C  0.87331967  0.98512687  0.23631148     1.07200
Mn1643     Mn  0.53175683  0.91993263  0.28183965     1.49900
C1644       C  0.97437441  0.84877326  0.32916882     1.10100
O1645       O  0.90265408  0.89671735  0.25290146    -1.03400
O1646       O  0.61149306  0.55620607  0.31821536    -0.93100
C1647       C  0.90843895  0.90096584  0.22423665     1.21400
O1648       O  0.55954954  0.96648857  0.25251819    -1.03800
O1649       O  0.58230524  0.59469436  0.31513506    -0.91200
O1650       O  0.50906831  0.87437438  0.31775968    -0.90800
O1651       O  0.86218238  0.94871784  0.31601299    -0.90800
Mn1652     Mn  0.53634059  0.57198694  0.28124705     1.47900
O1653       O  0.52642230  0.96937023  0.34988947    -0.79300
C1654       C  0.90770231  0.90291252  0.34122235     1.14400
O1655       O  0.98549157  0.51643895  0.21482553    -0.78100
O1656       O  0.98923880  0.51638825  0.34994649    -0.77700
Mn1657     Mn  0.92433387  0.87341201  0.28341022     1.51100
O1658       O  0.50852227  0.87507224  0.24576481    -0.90000
O1659       O  0.99213272  0.55516745  0.31254154    -0.97500
O1660       O  0.94149072  0.84627098  0.31935741    -0.92600
C1661       C  0.99189269  0.54917876  0.34110879     1.12200
C1662       C  0.98962700  0.64121593  0.39918863    -0.07100
C1663       C  0.97296491  0.60145765  0.41132274    -0.18300
C1664       C  0.97438028  0.57076459  0.39378875     0.10100
C1665       C  0.99327122  0.58001725  0.36342640    -0.07100
C1666       C  0.51250580  0.62052239  0.35240330    -0.18300
C1667       C  0.51153960  0.65111778  0.36994689     0.10100
S1668       S  0.94937035  0.52033680  0.41071792    -0.33300
S1669       S  0.53926472  0.70197069  0.35384067    -0.33300
H1670       H  0.55213554  0.72087232  0.38370229     0.28100
H1671       H  0.92813766  0.00117744  0.38255575     0.28100
H1672       H  0.95679260  0.59364394  0.43385398     0.18700
H1673       H  0.52822179  0.62844365  0.32964368     0.18700
C1674       C  0.96628049  0.75693364  0.39514233    -0.07100
C1675       C  0.99564679  0.79752587  0.39983643    -0.18300
C1676       C  0.99867998  0.82825209  0.37947603     0.10100
C1677       C  0.97136802  0.81863915  0.35362342    -0.07100
C1678       C  0.94081062  0.77789356  0.34984820    -0.18300
C1679       C  0.93814147  0.74707504  0.37007450     0.10100
S1680       S  0.03824092  0.87859330  0.38847479    -0.33300
S1681       S  0.89853764  0.69575124  0.36239875    -0.33300
H1682       H  0.89449135  0.68190866  0.39409916     0.28100
H1683       H  0.01744682  0.89786699  0.37730124     0.28100
H1684       H  0.01744444  0.80523659  0.41896858     0.18700
H1685       H  0.91950770  0.76970839  0.33031190     0.18700
C1686       C  0.96594387  0.63083800  0.16791369    -0.07100
C1687       C  0.49230979  0.64509388  0.19398742    -0.18300
C1688       C  0.50094502  0.61937108  0.21204695     0.10100
C1689       C  0.98323927  0.57782450  0.20358242    -0.07100
C1690       C  0.95769613  0.56366176  0.17681637    -0.18300
C1691       C  0.94822651  0.58950333  0.15930010     0.10100
S1692       S  0.53534077  0.64086961  0.24541102    -0.33300
S1693       S  0.91129992  0.56734116  0.12788405    -0.33300
H1694       H  0.89406688  0.59223635  0.13259650     0.28100
H1695       H  0.54222205  0.68077598  0.24297681     0.28100
H1696       H  0.50646261  0.67691621  0.20016153     0.18700
H1697       H  0.94326241  0.53182773  0.17056941     0.18700
C1698       C  0.95713621  0.75460139  0.17013031    -0.07100
C1699       C  0.48933342  0.79423901  0.16570004    -0.18300
C1700       C  0.49525105  0.82570417  0.18632592     0.10100
C1701       C  0.96817226  0.81774258  0.21222214    -0.07100
C1702       C  0.93490685  0.77814771  0.21559364    -0.18300
C1703       C  0.92918474  0.74671986  0.19507264     0.10100
S1704       S  0.53816098  0.87480020  0.17806831    -0.33300
S1705       S  0.88578485  0.69716159  0.20221371    -0.33300
H1706       H  0.88053122  0.68445808  0.17025123     0.28100
H1707       H  0.51889984  0.89650118  0.18701859     0.28100
H1708       H  0.51102726  0.80050100  0.14669259     0.18700
H1709       H  0.91354706  0.77119936  0.23498223     0.18700
C1710       C  0.96963970  0.69704624  0.49916840    -0.07100
C1711       C  0.48879684  0.73362090  0.01586021    -0.18300
C1712       C  0.48873709  0.73427653  0.04933623     0.10100
C1713       C  0.96702431  0.69733493  0.06669909    -0.07100
C1714       C  0.94800103  0.66063140  0.04981787    -0.18300
C1715       C  0.94859424  0.65986330  0.01649074     0.10100
S1716       S  0.51905144  0.78276395  0.06828824    -0.33300
S1717       S  0.92106429  0.61082739  0.99781774    -0.33300
H1718       H  0.90546853  0.62528976  0.47275482     0.28100
H1719       H  0.53338164  0.76760331  0.09270413     0.28100
H1720       H  0.50554317  0.76199413  0.00285034     0.18700
H1721       H  0.93152613  0.63211021  0.06268709     0.18700
C1722       C  0.78806357  0.99037137  0.39516531    -0.07100
C1723       C  0.77392977  0.95819595  0.37345503    -0.18300
C1724       C  0.79979474  0.95496680  0.35150250     0.10100
C1725       C  0.84182910  0.98380246  0.35172077    -0.07100
C1726       C  0.85620940  0.51582297  0.37390408    -0.18300
C1727       C  0.82989967  0.51974692  0.39525284     0.10100
S1728       S  0.77602368  0.91532914  0.32220205    -0.33300
S1729       S  0.85113467  0.56396979  0.42030417    -0.33300
H1730       H  0.81731882  0.56960387  0.41888501     0.28100
H1731       H  0.79566845  0.94133379  0.29613007     0.28100
H1732       H  0.74186822  0.93600086  0.37275832     0.18700
H1733       H  0.88799973  0.53871368  0.37402257     0.18700
C1734       C  0.58909899  0.96947222  0.36093721    -0.07100
C1735       C  0.59402075  0.48547984  0.39191077    -0.18300
C1736       C  0.62617220  0.49047758  0.41154165     0.10100
C1737       C  0.65499604  0.98011385  0.39980493    -0.07100
C1738       C  0.64891918  0.96288223  0.36933647    -0.18300
C1739       C  0.61673616  0.95728369  0.34994221     0.10100
S1740       S  0.62870451  0.51052735  0.45077697    -0.33300
S1741       S  0.61081833  0.93216185  0.31204015    -0.33300
H1742       H  0.65002102  0.93726728  0.31014301     0.28100
H1743       H  0.62361743  0.47515339  0.46600882     0.28100
H1744       H  0.57283966  0.49438099  0.40082461     0.18700
H1745       H  0.66941416  0.95307379  0.36057164     0.18700
C1746       C  0.79557917  0.00109992  0.17015841    -0.07100
C1747       C  0.80985439  0.97445122  0.16247811    -0.18300
C1748       C  0.83655024  0.96963315  0.18272941     0.10100
C1749       C  0.84855032  0.99108818  0.21182345    -0.07100
C1750       C  0.83620276  0.01960729  0.21835331    -0.18300
C1751       C  0.81040427  0.02515788  0.19779864     0.10100
S1752       S  0.85495886  0.93679417  0.16947060    -0.33300
S1753       S  0.79771371  0.56362891  0.20809047    -0.33300
H1754       H  0.79299919  0.57317124  0.17646957     0.28100
H1755       H  0.89304650  0.95871140  0.18413487     0.28100
H1756       H  0.79925186  0.95637181  0.14099871     0.18700
H1757       H  0.84617700  0.53735340  0.23999756     0.18700
C1758       C  0.65799257  0.98121294  0.16886490    -0.07100
C1759       C  0.63049621  0.49113203  0.15459723    -0.18300
C1760       C  0.59588623  0.48590359  0.17092432     0.10100
C1761       C  0.58879226  0.97135571  0.20272188    -0.07100
C1762       C  0.61574469  0.96032871  0.21640361    -0.18300
C1763       C  0.64931156  0.96423958  0.19997841     0.10100
S1764       S  0.56289379  0.49937942  0.15008630    -0.33300
S1765       S  0.67834181  0.94507443  0.22018834    -0.33300
H1766       H  0.68118605  0.92471548  0.19319698     0.28100
H1767       H  0.52820218  0.46133867  0.15546293     0.28100
H1768       H  0.63614800  0.50350470  0.13059806     0.18700
H1769       H  0.61035180  0.94771883  0.24030808     0.18700
C1770       C  0.73021449  0.99559573  0.49982646    -0.07100
C1771       C  0.69503757  0.96691872  0.01620461    -0.18300
C1772       C  0.69400803  0.96423990  0.04951780     0.10100
C1773       C  0.72848856  0.99133660  0.06731421    -0.07100
C1774       C  0.76372968  0.52008546  0.05096909    -0.18300
C1775       C  0.76476509  0.52271541  0.01759901     0.10100
S1776       S  0.64855163  0.92409970  0.06760297    -0.33300
S1777       S  0.81000062  0.56277313  0.99942156    -0.33300
H1778       H  0.78996462  0.57108330  0.47533517     0.28100
H1779       H  0.66885802  0.91540560  0.09176562     0.28100
H1780       H  0.66886803  0.94558697  0.50291009     0.18700
H1781       H  0.79014301  0.54141362  0.06436553     0.18700
C1782       C  0.87639294  0.87440985  0.36390449    -0.07100
C1783       C  0.83571490  0.85718748  0.35445298    -0.18300
C1784       C  0.80440035  0.82648094  0.37226473     0.10100
C1785       C  0.81365054  0.81092624  0.39968293    -0.07100
C1786       C  0.85383165  0.82994910  0.41057365    -0.18300
C1787       C  0.88524386  0.86148703  0.39307873     0.10100
S1788       S  0.75327277  0.80937777  0.35912973    -0.33300
S1789       S  0.93580423  0.88160713  0.40830128    -0.33300
H1790       H  0.95193104  0.88111717  0.37848672     0.28100
H1791       H  0.73621971  0.80090095  0.38993923     0.28100
H1792       H  0.82815213  0.86762220  0.33278448     0.18700
H1793       H  0.86114903  0.81874991  0.43194588     0.18700
C1794       C  0.63893261  0.61720451  0.34885847    -0.07100
C1795       C  0.65291286  0.60449184  0.37517959    -0.18300
C1796       C  0.68134719  0.63279319  0.39665914     0.10100
C1797       C  0.69550718  0.67475618  0.39224623    -0.07100
C1798       C  0.68137672  0.68711813  0.36599021    -0.18300
C1799       C  0.65432563  0.65935820  0.34409975     0.10100
S1800       S  0.69987869  0.61375418  0.42803092    -0.33300
S1801       S  0.64296740  0.68039119  0.30946651    -0.33300
H1802       H  0.64573666  0.65371735  0.28773149     0.28100
H1803       H  0.73993067  0.64633698  0.42699234     0.28100
H1804       H  0.64201703  0.57241637  0.37883337     0.18700
H1805       H  0.69227034  0.71914248  0.36197175     0.18700
C1806       C  0.81480164  0.80702571  0.16628945    -0.07100
C1807       C  0.85440006  0.82957392  0.15402634    -0.18300
C1808       C  0.88564534  0.86091508  0.17171347     0.10100
C1809       C  0.87733508  0.87035668  0.20247251    -0.07100
C1810       C  0.83722570  0.84898888  0.21382748    -0.18300
C1811       C  0.80605327  0.81843600  0.19603184     0.10100
S1812       S  0.93551199  0.88592119  0.15433781    -0.33300
S1813       S  0.75552266  0.79657244  0.21231416    -0.33300
H1814       H  0.73664279  0.79235485  0.18258583     0.28100
H1815       H  0.95422291  0.88425588  0.18264715     0.28100
H1816       H  0.86155667  0.82152504  0.13112964     0.18700
H1817       H  0.82976332  0.85662658  0.23678663     0.18700
C1818       C  0.69754783  0.66925119  0.17016712    -0.07100
C1819       C  0.65641458  0.65362925  0.16299601    -0.18300
C1820       C  0.62595107  0.62459048  0.18275046     0.10100
C1821       C  0.63666797  0.61101266  0.21064131    -0.07100
C1822       C  0.67786134  0.62522752  0.21683564    -0.18300
C1823       C  0.70825151  0.65383345  0.19691409     0.10100
S1824       S  0.57433034  0.60575097  0.17053749    -0.33300
S1825       S  0.76006444  0.66920870  0.20686582    -0.33300
H1826       H  0.77415701  0.67553328  0.17516859     0.28100
H1827       H  0.55925505  0.56710711  0.18436757     0.28100
H1828       H  0.64791570  0.66488524  0.14227159     0.18700
H1829       H  0.68657440  0.61471972  0.23788972     0.18700
C1830       C  0.74937324  0.73624770  0.49840796    -0.07100
C1831       C  0.73919775  0.69981990  0.01444829    -0.18300
C1832       C  0.74129966  0.69845694  0.04783156     0.10100
C1833       C  0.75306400  0.73411519  0.06587967    -0.07100
C1834       C  0.76237172  0.77016464  0.04968462    -0.18300
C1835       C  0.76002016  0.77147824  0.01644854     0.10100
S1836       S  0.73115688  0.65089130  0.06549873    -0.33300
S1837       S  0.76954796  0.81910527  0.49924886    -0.33300
H1838       H  0.73935495  0.80107771  0.47575797     0.28100
H1839       H  0.76260649  0.66867431  0.08802120     0.28100
H1840       H  0.73126773  0.67263070  0.00091128     0.18700
H1841       H  0.77043800  0.79746330  0.06311510     0.18700
C1842       C  0.72818273  0.70366540  0.65118646     0.79200
N1843       N  0.75695558  0.73730726  0.66611679    -0.79100
C1844       C  0.78423197  0.77020477  0.64919705     0.81600
N1845       N  0.78325520  0.76869200  0.61676765    -0.79100
C1846       C  0.75470729  0.73489624  0.60141052     0.81700
N1847       N  0.72671010  0.70283342  0.61882485    -0.80800
C1848       C  0.72653138  0.70719607  0.91259311     0.79200
N1849       N  0.75563827  0.74156383  0.89828845    -0.79100
C1850       C  0.78279244  0.77350707  0.91572728     0.81600
N1851       N  0.78103465  0.77089404  0.94796358    -0.79100
C1852       C  0.75156688  0.73722950  0.96288909     0.81700
N1853       N  0.72434095  0.70513453  0.94508374    -0.80800
C1854       C  0.76195937  0.99961852  0.65150287     0.79200
N1855       N  0.76168876  0.99800606  0.61914183    -0.79100
C1856       C  0.72862645  0.99269466  0.60257800     0.81600
N1857       N  0.69554915  0.98828833  0.61865879    -0.79100
C1858       C  0.69522816  0.98895872  0.65106295     0.81700
N1859       N  0.72881564  0.99526359  0.66711727    -0.80800
C1860       C  0.75733832  0.99335529  0.91482368     0.79200
N1861       N  0.76012182  0.99632846  0.94716538    -0.79100
C1862       C  0.72918129  0.99515183  0.96451807     0.81600
N1863       N  0.69538523  0.99029457  0.94935631    -0.79100
C1864       C  0.69240958  0.98748050  0.91713112     0.81700
N1865       N  0.72352132  0.98881802  0.90027429    -0.80800
C1866       C  0.95653837  0.72138203  0.65120624     0.79200
N1867       N  0.96050777  0.72423519  0.61888887    -0.79100
C1868       C  0.96361490  0.69522940  0.60209527     0.81600
N1869       N  0.96313445  0.66361424  0.61795081    -0.79100
C1870       C  0.95951832  0.66076644  0.65018025     0.81700
N1871       N  0.95651632  0.68989158  0.66659779    -0.80800
C1872       C  0.96866397  0.72535388  0.91408868     0.79200
N1873       N  0.97521490  0.69759751  0.89906739    -0.79100
C1874       C  0.98120819  0.67045590  0.91596797     0.81600
N1875       N  0.97912560  0.67031733  0.94831189    -0.79100
C1876       C  0.97193488  0.69756999  0.96374753     0.81700
N1877       N  0.96766311  0.72573886  0.94652236    -0.80800
O1878       O  0.90101295  0.51697987  0.74957775    -0.89200
C1879       C  0.60883360  0.58695523  0.82638987     1.10800
O1880       O  0.94418598  0.97607912  0.78267620    -1.37000
O1881       O  0.57936686  0.59201767  0.74409007    -0.90700
O1882       O  0.86519268  0.94935143  0.74429493    -0.91400
O1883       O  0.94062041  0.93145043  0.71483500    -0.80200
O1884       O  0.98974447  0.55385934  0.75320913    -1.02300
C1885       C  0.55612659  0.96879043  0.72380864     1.20900
O1886       O  0.98095580  0.92833633  0.78234860    -1.37200
Mn1887     Mn  0.98505147  0.97239632  0.81716979     1.82100
O1888       O  0.52590189  0.97093543  0.71440089    -0.79200
O1889       O  0.61155774  0.55630111  0.74716622    -0.88600
C1890       C  0.55645691  0.96719477  0.83992892     1.12000
C1891       C  0.60678461  0.58435273  0.73498564     1.06700
O1892       O  0.94100730  0.93222943  0.84986017    -0.80200
O1893       O  0.52847601  0.51290946  0.78209126    -1.33900
O1894       O  0.90159383  0.89726085  0.81255038    -0.99400
C1895       C  0.97325902  0.84834347  0.73662640     1.05400
Mn1896     Mn  0.58361829  0.51164131  0.78232614     1.48600
O1897       O  0.94107988  0.84529114  0.74848922    -0.88600
Mn1898     Mn  0.88497434  0.92538110  0.78151674     1.49600
O1899       O  0.90214056  0.51584877  0.82025489    -0.92500
C1900       C  0.98730548  0.54840554  0.72463644     1.18600
C1901       C  0.87062438  0.98264781  0.82804862     1.10100
Mn1902     Mn  0.98431364  0.97265802  0.74740388     1.81000
O1903       O  0.55962206  0.96574544  0.81133567    -0.97600
Mn1904     Mn  0.94567057  0.53277054  0.78397405     1.49300
C1905       C  0.87337165  0.98511734  0.73625228     1.07200
Mn1906     Mn  0.53187131  0.91995485  0.78182049     1.49900
C1907       C  0.97441558  0.84876100  0.82910960     1.10100
O1908       O  0.90270490  0.89669567  0.75282686    -1.03400
O1909       O  0.61149670  0.55607646  0.81816141    -0.93100
C1910       C  0.90849712  0.90095306  0.72416587     1.21400
O1911       O  0.55961388  0.96646584  0.75245416    -1.03800
O1912       O  0.58228221  0.59455163  0.81517069    -0.91200
O1913       O  0.50919614  0.87440011  0.81776041    -0.90800
O1914       O  0.86223620  0.94869856  0.81595330    -0.90800
Mn1915     Mn  0.53628078  0.57183919  0.78130523     1.47900
O1916       O  0.52649822  0.96944668  0.84984434    -0.79300
C1917       C  0.90778023  0.90289603  0.84113860     1.14400
O1918       O  0.98560465  0.51638571  0.71484052    -0.78100
O1919       O  0.98935408  0.51626648  0.84995618    -0.77700
Mn1920     Mn  0.92440451  0.87340261  0.78333214     1.51100
O1921       O  0.50871311  0.87507313  0.74577741    -0.90000
O1922       O  0.99230036  0.55508120  0.81256147    -0.97500
O1923       O  0.94155562  0.84629088  0.81928347    -0.92600
C1924       C  0.99201461  0.54906312  0.84112644     1.12200
C1925       C  0.98910625  0.64084384  0.89909924    -0.07100
C1926       C  0.97236857  0.60104678  0.91117021    -0.18300
C1927       C  0.97401015  0.57043710  0.89368661     0.10100
C1928       C  0.99320159  0.57981314  0.86344150    -0.07100
C1929       C  0.51204561  0.62021279  0.85241661    -0.18300
C1930       C  0.51084777  0.65072754  0.86989633     0.10100
S1931       S  0.94890746  0.51995584  0.91052181    -0.33300
S1932       S  0.53835247  0.70155420  0.85371249    -0.33300
H1933       H  0.55131135  0.72051897  0.88354331     0.28100
H1934       H  0.92814942  0.00099846  0.88251801     0.28100
H1935       H  0.95599058  0.59314541  0.93360487     0.18700
H1936       H  0.52780917  0.62817976  0.82968111     0.18700
C1937       C  0.96595599  0.75670569  0.89500026    -0.07100
C1938       C  0.99520244  0.79730963  0.89989868    -0.18300
C1939       C  0.99837821  0.82812439  0.87955648     0.10100
C1940       C  0.97132136  0.81856958  0.85353060    -0.07100
C1941       C  0.94088153  0.77781937  0.84955055    -0.18300
C1942       C  0.93807269  0.74693021  0.86975366     0.10100
S1943       S  0.03778741  0.87848129  0.88878884    -0.33300
S1944       S  0.89859774  0.69562589  0.86182847    -0.33300
H1945       H  0.89416479  0.68168357  0.89352598     0.28100
H1946       H  0.01730964  0.89784049  0.87711639     0.28100
H1947       H  0.01679936  0.80496207  0.91917203     0.18700
H1948       H  0.91977572  0.76969524  0.82988147     0.18700
C1949       C  0.96572163  0.63056169  0.66793551    -0.07100
C1950       C  0.49218341  0.64496352  0.69407263    -0.18300
C1951       C  0.50081925  0.61923779  0.71212516     0.10100
C1952       C  0.98323307  0.57769456  0.70359276    -0.07100
C1953       C  0.95776163  0.56349207  0.67678712    -0.18300
C1954       C  0.94823458  0.58927163  0.65924173     0.10100
S1955       S  0.53514367  0.64070885  0.74553417    -0.33300
S1956       S  0.91157462  0.56708291  0.62764832    -0.33300
H1957       H  0.89413449  0.59181076  0.63225518     0.28100
H1958       H  0.54459784  0.68129799  0.74153073     0.28100
H1959       H  0.50625244  0.67676416  0.70031111     0.18700
H1960       H  0.94346680  0.53167869  0.67050167     0.18700
C1961       C  0.95701157  0.75437435  0.67017993    -0.07100
C1962       C  0.48942498  0.79426759  0.66563184    -0.18300
C1963       C  0.49538502  0.82574156  0.68626148     0.10100
C1964       C  0.96820331  0.81761751  0.71222356    -0.07100
C1965       C  0.93505239  0.77798724  0.71576746    -0.18300
C1966       C  0.92924989  0.74651287  0.69527012     0.10100
S1967       S  0.53824916  0.87484588  0.67792663    -0.33300
S1968       S  0.88597210  0.69693676  0.70261825    -0.33300
H1969       H  0.88041520  0.68419896  0.67065713     0.28100
H1970       H  0.51910299  0.89657376  0.68708779     0.28100
H1971       H  0.51104312  0.80054040  0.64656250     0.18700
H1972       H  0.91384162  0.77105896  0.73526452     0.18700
C1973       C  0.96902308  0.69668890  0.99906077    -0.07100
C1974       C  0.48958332  0.73398148  0.51597866    -0.18300
C1975       C  0.48941264  0.73452810  0.54945811     0.10100
C1976       C  0.96726911  0.69732890  0.56677969    -0.07100
C1977       C  0.94774521  0.66075358  0.54977119    -0.18300
C1978       C  0.94853651  0.66017219  0.51644648     0.10100
S1979       S  0.51976652  0.78293269  0.56852002    -0.33300
S1980       S  0.92045806  0.61134762  0.49754541    -0.33300
H1981       H  0.90539982  0.62416104  0.97309946     0.28100
H1982       H  0.53387379  0.76761341  0.59298098     0.28100
H1983       H  0.50645153  0.76238147  0.50302345     0.18700
H1984       H  0.93074850  0.63221707  0.56253950     0.18700
C1985       C  0.78807424  0.99033292  0.89511315    -0.07100
C1986       C  0.77395392  0.95816046  0.87339963    -0.18300
C1987       C  0.79982727  0.95494463  0.85144024     0.10100
C1988       C  0.84186002  0.98379978  0.85164309    -0.07100
C1989       C  0.85628186  0.51587469  0.87387190    -0.18300
C1990       C  0.82995827  0.51976832  0.89522593     0.10100
S1991       S  0.77606911  0.91527323  0.82216439    -0.33300
S1992       S  0.85109581  0.56411030  0.92014854    -0.33300
H1993       H  0.81716930  0.56956360  0.91873655     0.28100
H1994       H  0.79570019  0.94125356  0.79607714     0.28100
H1995       H  0.74189714  0.93594855  0.87271376     0.18700
H1996       H  0.88803700  0.53887601  0.87390458     0.18700
C1997       C  0.58918796  0.96958370  0.86088762    -0.07100
C1998       C  0.59413884  0.48546682  0.89183770    -0.18300
C1999       C  0.62631977  0.49051491  0.91145164     0.10100
C2000       C  0.65507114  0.98021151  0.89976700    -0.07100
C2001       C  0.64906922  0.96310042  0.86925871    -0.18300
C2002       C  0.61691411  0.95753419  0.84985197     0.10100
S2003       S  0.62891380  0.51068309  0.95065047    -0.33300
S2004       S  0.61115086  0.93260081  0.81188127    -0.33300
H2005       H  0.65046042  0.93798731  0.80993979     0.28100
H2006       H  0.62372809  0.47530776  0.96594567     0.28100
H2007       H  0.57294784  0.49435066  0.90075834     0.18700
H2008       H  0.66959794  0.95335171  0.86046765     0.18700
C2009       C  0.79578983  0.00137911  0.67012751    -0.07100
C2010       C  0.81004474  0.97472731  0.66239408    -0.18300
C2011       C  0.83665089  0.96977337  0.68265251     0.10100
C2012       C  0.84860611  0.99112421  0.71179388    -0.07100
C2013       C  0.83626892  0.01963615  0.71838828    -0.18300
C2014       C  0.81053941  0.02530012  0.69784180     0.10100
S2015       S  0.85497341  0.93687211  0.66935997    -0.33300
S2016       S  0.79777414  0.56372091  0.70838551    -0.33300
H2017       H  0.79313926  0.57341925  0.67679341     0.28100
H2018       H  0.89302373  0.95863912  0.68410244     0.28100
H2019       H  0.79947675  0.95673222  0.64086871     0.18700
H2020       H  0.84623283  0.53737815  0.74020100     0.18700
C2021       C  0.65816628  0.98137782  0.66882210    -0.07100
C2022       C  0.63065105  0.49133269  0.65462836    -0.18300
C2023       C  0.59596704  0.48597059  0.67092579     0.10100
C2024       C  0.58888954  0.97137274  0.70265982    -0.07100
C2025       C  0.61587754  0.96039216  0.71634359    -0.18300
C2026       C  0.64949226  0.96439033  0.69993135     0.10100
S2027       S  0.56297345  0.49945199  0.65009774    -0.33300
S2028       S  0.67861026  0.94534204  0.72016402    -0.33300
H2029       H  0.68151948  0.92500205  0.69318573     0.28100
H2030       H  0.52828900  0.46139541  0.65544308     0.28100
H2031       H  0.63634530  0.50378803  0.63065885     0.18700
H2032       H  0.61048698  0.94777053  0.74024009     0.18700
C2033       C  0.73009503  0.99526981  0.99983627    -0.07100
C2034       C  0.69533552  0.96697347  0.51622476    -0.18300
C2035       C  0.69439538  0.96433594  0.54953619     0.10100
C2036       C  0.72876040  0.99174612  0.56728965    -0.07100
C2037       C  0.76393669  0.51981527  0.55097705    -0.18300
C2038       C  0.76491767  0.52244521  0.51760789     0.10100
S2039       S  0.64922929  0.92385290  0.56768159    -0.33300
S2040       S  0.81026368  0.56227815  0.49940691    -0.33300
H2041       H  0.78962129  0.57119264  0.97517353     0.28100
H2042       H  0.66982930  0.91561316  0.59188311     0.28100
H2043       H  0.66847234  0.94576715  0.00286416     0.18700
H2044       H  0.79046539  0.54098974  0.56433918     0.18700
C2045       C  0.87644049  0.87438246  0.86379862    -0.07100
C2046       C  0.83579317  0.85697997  0.85422838    -0.18300
C2047       C  0.80447298  0.82626309  0.87202024     0.10100
C2048       C  0.81368767  0.81088553  0.89956699    -0.07100
C2049       C  0.85382741  0.83009315  0.91056890    -0.18300
C2050       C  0.88524252  0.86163584  0.89307768     0.10100
S2051       S  0.75338063  0.80892934  0.85868191    -0.33300
S2052       S  0.93577078  0.88197128  0.90841099    -0.33300
H2053       H  0.95184617  0.88098317  0.87868983     0.28100
H2054       H  0.73619668  0.80058897  0.88944465     0.28100
H2055       H  0.82825450  0.86728607  0.83247479     0.18700
H2056       H  0.86112503  0.81902997  0.93203040     0.18700
C2057       C  0.63901904  0.61708201  0.84877529    -0.07100
C2058       C  0.65303134  0.60439321  0.87508816    -0.18300
C2059       C  0.68152241  0.63271625  0.89652160     0.10100
C2060       C  0.69565166  0.67467045  0.89210403    -0.07100
C2061       C  0.68153187  0.68701242  0.86582662    -0.18300
C2062       C  0.65448135  0.65923218  0.84394666     0.10100
S2063       S  0.70021950  0.61373379  0.92781091    -0.33300
S2064       S  0.64323947  0.68020992  0.80921766    -0.33300
H2065       H  0.64587690  0.65336817  0.78758095     0.28100
H2066       H  0.74024647  0.64636050  0.92669345     0.28100
H2067       H  0.64213069  0.57231776  0.87876170     0.18700
H2068       H  0.69244115  0.71903472  0.86177705     0.18700
C2069       C  0.81487707  0.80698282  0.66629397    -0.07100
C2070       C  0.85454773  0.82925626  0.65413300    -0.18300
C2071       C  0.88578949  0.86063348  0.67178423     0.10100
C2072       C  0.87739808  0.87036833  0.70240385    -0.07100
C2073       C  0.83722461  0.84927419  0.71364340    -0.18300
C2074       C  0.80605510  0.81869574  0.69586393     0.10100
S2075       S  0.93574452  0.88526580  0.65457038    -0.33300
S2076       S  0.75544190  0.79718816  0.71190883    -0.33300
H2077       H  0.73675326  0.79272807  0.68206017     0.28100
H2078       H  0.95425597  0.88393950  0.68308247     0.28100
H2079       H  0.86174724  0.82095990  0.63135919     0.18700
H2080       H  0.82972399  0.85714892  0.73648821     0.18700
C2081       C  0.69749877  0.66927599  0.67027431    -0.07100
C2082       C  0.65637005  0.65371562  0.66311863    -0.18300
C2083       C  0.62589534  0.62464267  0.68284389     0.10100
C2084       C  0.63659710  0.61097162  0.71068846    -0.07100
C2085       C  0.67778543  0.62513785  0.71687095    -0.18300
C2086       C  0.70818637  0.65377205  0.69697318     0.10100
S2087       S  0.57427952  0.60587383  0.67064825    -0.33300
S2088       S  0.75998837  0.66904938  0.70688039    -0.33300
H2089       H  0.77405086  0.67540303  0.67517398     0.28100
H2090       H  0.55918815  0.56717419  0.68437977     0.28100
H2091       H  0.64788626  0.66503369  0.64242592     0.18700
H2092       H  0.68648507  0.61456136  0.73789041     0.18700
C2093       C  0.74938945  0.73616889  0.99829679    -0.07100
C2094       C  0.73896321  0.69982778  0.51453427    -0.18300
C2095       C  0.74105546  0.69841250  0.54791203     0.10100
C2096       C  0.75301329  0.73408967  0.56598004    -0.07100
C2097       C  0.76254588  0.77021689  0.54981215    -0.18300
C2098       C  0.76023069  0.77159377  0.51658196     0.10100
S2099       S  0.73066418  0.65075100  0.56554247    -0.33300
S2100       S  0.76896877  0.81884087  0.99906757    -0.33300
H2101       H  0.73886644  0.80060794  0.97553232     0.28100
H2102       H  0.76217948  0.66838039  0.58802314     0.28100
H2103       H  0.73087086  0.67261181  0.50098082     0.18700
H2104       H  0.77077958  0.79754376  0.56325938     0.18700
loop_ 
_geom_bond_atom_site_label_1 
_geom_bond_atom_site_label_2 
_geom_bond_distance 
_geom_bond_site_symmetry_2 
_ccdc_geom_bond_type 
C1            N2   1.356       .  A
C1            N6   1.358       .  A
C1          C240   1.477       .  S
N2            C3   1.357       .  A
C3            N4   1.361       .  A
C3          C228   1.488       .  S
N4            C5   1.364       .  A
C5            N6   1.360       .  A
C5          C255   1.486       .  S
C7            N8   1.358       .  A
C7           N12   1.364       .  A
C7          C219   1.486       .  S
N8            C9   1.354       .  A
C9           N10   1.353       .  A
C9          C207   1.478       .  S
N10          C11   1.359       .  A
C11          N12   1.366       .  A
C11         C252   1.486       .  S
C13          N14   1.358       .  A
C13          N18   1.355       .  A
C13         C168   1.477       .  S
N14          C15   1.361       .  A
C15          N16   1.362       .  A
C15         C195   1.480       .  S
N16          C17   1.359       .  A
C17          N18   1.356       .  A
C17         C180   1.490       .  S
C19          N20   1.361       .  A
C19          N24   1.355       .  A
C19         C144   1.483       .  S
N20          C21   1.365       .  A
C21          N22   1.362       .  A
C21         C192   1.481       .  S
N22          C23   1.356       .  A
C23          N24   1.357       .  A
C23         C159   1.495       .  S
C25          N26   1.361       .  A
C25          N30   1.355       .  A
C25         C120   1.479       .  S
N26          C27   1.363       .  A
C27          N28   1.361       .  A
C27         C135   1.485       .  S
N28          C29   1.356       .  A
C29          N30   1.357       .  A
C29         C108   1.478       .  S
C31          N32   1.355       .  A
C31          N36   1.360       .  A
C31          C96   1.476       .  S
N32          C33   1.357       .  A
C33          N34   1.358       .  A
C33          C84   1.482       .  S
N34          C35   1.361       .  A
C35          N36   1.362       .  A
C35         C132   1.483       .  S
O37         Mn63   2.078       .  S
O37         C590   1.268   1_545  A
C38         C216   1.487       .  S
C38          O71   1.270       .  A
C38          O68   1.275       .  A
O39         Mn46   2.176       .  S
O39         Mn57   2.114       .  S
O39         Mn61   2.175       .  S
O39        Mn589   2.126       .  S
O40         Mn74   2.109       .  S
O40          C50   1.273       .  A
O41         Mn57   2.120       .  S
O41          C64   1.276       .  A
O42         Mn61   2.123       .  S
O42          C69   1.255       .  A
O43         Mn63   1.942       .  S
O43       Mn1126   1.949       .  S
O43          C59   1.212       .  S
C44         C183   1.492       .  S
C44          O47   1.255       .  A
C44          O70   1.216       .  S
O45         Mn46   2.172       .  S
O45         Mn79   2.125       .  S
O45         Mn61   2.180       .  S
O45       Mn1117   2.112       .  S
Mn46         O51   2.109       .  S
Mn46       O1127   2.133       .  S
Mn46        O604   2.108       .  S
Mn46       O1630   2.172       .  S
O47       Mn1113   2.127   1_455  S
O48         Mn55   2.088       .  S
O48          C50   1.270       .  A
C49         C156   1.490       .  S
C49          O75   1.255       .  A
C49          O62   1.209       .  S
C50         C243   1.482       .  S
O51          C76   1.255       .  A
O52         Mn55   2.121       .  S
O52         Mn74   2.105       .  S
O52       Mn1624   2.171   1_445  S
O52       Mn1639   2.176   1_445  S
O53         Mn57   1.972       .  S
O53         Mn79   1.966       .  S
O53          C76   1.220       .  S
C54         C123   1.494       .  S
C54          O56   1.272       .  A
C54        O1132   1.277       .  A
Mn55         O68   2.115       .  S
Mn55        O596   1.953   1_545  S
Mn55        O588   1.940   1_545  S
O56         Mn79   2.089       .  S
Mn57         O73   2.095       .  S
Mn57         O67   1.957       .  S
O58         Mn63   2.098       .  S
O58         C586   1.273   1_545  A
C59         C111   1.483       .  S
C59          O77   1.256       .  A
C60         C147   1.492       .  S
C60          O73   1.272       .  A
C60         O584   1.273       .  A
Mn61       O1099   2.126       .  S
Mn61        O603   2.126       .  S
Mn61       O1630   2.176       .  S
O62         Mn65   1.965       .  S
O62        Mn581   1.940       .  S
Mn63        O565   2.126   1_545  S
Mn63         O81   1.953       .  S
C64         C171   1.483       .  S
C64         O563   1.268       .  A
Mn65         O72   2.119       .  S
Mn65         O80   2.120       .  S
Mn65       O1097   2.112   1_455  S
Mn65         O70   1.968       .  S
C66          C99   1.493       .  S
C66          O82   1.274       .  A
C66        O1124   1.276       .  A
O67         Mn79   1.952       .  S
O67          C69   1.217       .  S
C69         C231   1.492       .  S
O70        Mn581   1.953       .  S
O71         Mn74   2.081       .  S
O72        C1118   1.276   1_455  A
Mn74       O1095   1.949   1_455  S
Mn74       O1133   1.966   1_455  S
O75       Mn1098   2.133   1_455  S
C76         C204   1.483       .  S
O77        Mn587   2.126   1_545  S
O78        Mn572   2.108   1_545  S
O78          C83   1.252       .  A
Mn79         O82   2.100       .  S
O80        C1106   1.277   1_455  A
O81       Mn1126   1.966       .  S
O81          C83   1.217       .  S
C83          C87   1.482       .  S
C84          C85   1.407       .  A
C84        C1141   1.414       .  A
C85          C86   1.404       .  A
C85          H94   1.084       .  S
C86          C87   1.416       .  A
C86          S90   1.802       .  S
C87        C1140   1.405       .  A
C88          C89   1.394       .  A
C88        C1139   1.405   1_455  A
C88          H95   1.085       .  S
C89        C1136   1.414   1_455  A
C89          S91   1.805       .  S
S90         H619   1.405       .  S
S91          H92   1.407       .  S
H93         S616   1.405       .  S
C96          C97   1.397       .  A
C96         C101   1.412       .  A
C97          C98   1.399       .  A
C97         H106   1.085       .  S
C98          C99   1.419       .  A
C98         S102   1.790       .  S
C99         C100   1.408       .  A
C100        C101   1.403       .  A
C100        H107   1.084       .  S
C101        S103   1.804       .  S
S102        H105   1.397       .  S
S103        H104   1.406       .  S
C108        C113   1.414       .  A
C108       C1161   1.399       .  A
C109        C110   1.395   1_655  A
C109       C1160   1.399       .  A
C109        H118   1.083   1_655  S
C110       C1163   1.419   1_455  A
C110        S114   1.811       .  S
C111        C112   1.406       .  A
C111       C1162   1.419       .  A
C112        C113   1.405       .  A
C112        H119   1.083       .  S
C113        S115   1.803       .  S
S114        H117   1.406       .  S
S115        H116   1.407       .  S
C120        C125   1.412       .  A
C120       C1173   1.401       .  A
C121        C122   1.403       .  A
C121       C1172   1.401       .  A
C121        H130   1.084   1_655  S
C122       C1175   1.418       .  A
C122        S126   1.796   1_655  S
C123        C124   1.409       .  A
C123       C1174   1.418       .  A
C124        C125   1.401       .  A
C124        H131   1.084       .  S
C125        S127   1.805       .  S
S126        H129   1.400       .  S
S127        H128   1.406       .  S
C132       C1448   1.405       .  A
C132        C400   1.415       .  A
C133        C134   1.404       .  A
C133       C1447   1.405   1_554  A
C133        H142   1.084   1_655  S
C134       C1187   1.417       .  A
C134        S138   1.803   1_655  S
C135        C136   1.404       .  A
C135       C1186   1.417       .  A
C136        C137   1.398       .  A
C136        H143   1.084       .  S
C137        C395   1.414   1_554  A
C137        S139   1.803   1_554  S
S138        H141   1.408       .  S
S139        H403   1.407       .  S
H140        S402   1.407       .  S
C144        C145   1.402       .  A
C144        C675   1.413       .  A
C145        C146   1.397       .  A
C145        H154   1.084       .  S
C146        C147   1.419       .  A
C146        S150   1.804       .  S
C147        C674   1.409       .  A
C148        C149   1.405       .  A
C148        C673   1.409   1_545  A
C148        H155   1.083       .  S
C149        C670   1.413   1_545  A
C149        S151   1.800       .  S
S150        H153   1.408       .  S
S151        H152   1.406       .  S
C156        C161   1.420       .  A
C156        C683   1.405       .  A
C157        C158   1.406       .  A
C157        C682   1.405       .  A
C157        H166   1.084       .  S
C158        C685   1.420       .  A
C158        S162   1.798   1_565  S
C159        C160   1.404       .  A
C159        C684   1.420       .  A
C160        C161   1.395       .  A
C160        H167   1.082       .  S
C161        S163   1.812       .  S
S162        H165   1.407   1_545  S
S163        H164   1.407       .  S
C168        C169   1.404       .  A
C168        C173   1.411       .  A
C169        C170   1.403       .  A
C169        H178   1.084       .  S
C170        C171   1.414       .  A
C170        S174   1.797       .  S
C171        C172   1.406       .  A
C172        C173   1.397       .  A
C172        H705   1.084       .  S
C173        S701   1.804       .  S
S174        H177   1.405       .  S
S175        C699   1.804       .  S
S175        H176   1.407       .  S
H179        C698   1.084       .  S
C180        C185   1.416       .  A
C180        C707   1.410       .  A
C181        C182   1.407       .  A
C181        C706   1.410       .  A
C181        H190   1.083   1_565  S
C182        C709   1.416       .  A
C182        S186   1.798       .  S
C183        C184   1.407       .  A
C183        C708   1.415       .  A
C184        C185   1.392       .  A
C184        H191   1.083       .  S
C185        S187   1.805       .  S
S186        H189   1.407       .  S
S187        H188   1.407       .  S
C192        C456   1.404       .  A
C192        C986   1.413       .  A
C193        C194   1.399       .  A
C193        C455   1.404   1_554  A
C193        H465   1.084       .  S
C194        C195   1.414       .  A
C194        S198   1.804       .  S
C195        C722   1.405       .  A
C196        C197   1.401       .  A
C196        C721   1.405   1_545  A
C196        H203   1.084       .  S
C197        C981   1.413   1_544  A
C197        S199   1.800   1_554  S
S198        H201   1.407       .  S
S199        H463   1.407       .  S
H200        S462   1.407       .  S
H202        C456   1.084       .  S
C204        C205   1.405       .  A
C204        C209   1.417       .  A
C205        C206   1.395       .  A
C205        H214   1.084       .  S
C206        C207   1.412       .  A
C206        S210   1.804       .  S
C207        C208   1.404       .  A
C208        C209   1.403       .  A
C208        H215   1.084       .  S
C209        S211   1.798       .  S
S210        H213   1.407       .  S
S211        H212   1.397       .  S
C216        C217   1.408       .  A
C216        C221   1.417       .  A
C217        C218   1.410       .  A
C217        H226   1.083       .  S
C218        C219   1.416       .  A
C218        S222   1.801       .  S
C219        C220   1.402       .  A
C220        C221   1.394       .  A
C220        H227   1.084       .  S
C221        S223   1.806       .  S
S222        H225   1.406       .  S
S223        H224   1.408       .  S
C228        C229   1.407       .  A
C228        C233   1.415       .  A
C229        C230   1.407       .  A
C229        H238   1.084       .  S
C230        C231   1.417       .  A
C230        S234   1.798       .  S
C231        C232   1.406       .  A
C232        C233   1.396       .  A
C232        H239   1.084       .  S
C233        S235   1.805       .  S
S234        H237   1.400       .  S
S235        H236   1.408       .  S
C240        C241   1.403       .  A
C240        C245   1.412       .  A
C241        C242   1.402       .  A
C241        H250   1.084       .  S
C242        C243   1.414       .  A
C242        S246   1.799       .  S
C243        C244   1.405       .  A
C244        C245   1.398       .  A
C244        H251   1.084       .  S
C245        S247   1.804       .  S
S246        H249   1.404       .  S
S247        H248   1.407       .  S
C252        C516   1.404       .  A
C252        C520   1.418       .  A
C253        C254   1.404       .  A
C253        C515   1.404   1_554  A
C253        H262   1.084       .  S
C254        C255   1.418       .  A
C254        S258   1.803       .  S
C255        C256   1.403       .  A
C256        C257   1.398       .  A
C256        H263   1.084       .  S
C257        C515   1.418   1_554  A
C257        S522   1.805   1_554  S
S258        H261   1.407       .  S
S259        C520   1.805       .  S
S259        H260   1.407       .  S
C264        N265   1.356       .  A
C264        N269   1.357       .  A
C264        C503   1.477       .  S
N265        C266   1.357       .  A
C266        N267   1.361       .  A
C266        C491   1.488       .  S
N267        C268   1.364       .  A
C268        N269   1.360       .  A
C268        C518   1.486       .  S
C270        N271   1.358       .  A
C270        N275   1.364       .  A
C270        C482   1.486       .  S
N271        C272   1.354       .  A
C272        N273   1.354       .  A
C272        C470   1.478       .  S
N273        C274   1.360       .  A
C274        N275   1.366       .  A
C274        C515   1.486       .  S
C276        N277   1.358       .  A
C276        N281   1.355       .  A
C276        C431   1.478       .  S
N277        C278   1.361       .  A
C278        N279   1.362       .  A
C278        C458   1.480       .  S
N279        C280   1.359       .  A
C280        N281   1.356       .  A
C280        C443   1.490       .  S
C282        N283   1.361       .  A
C282        N287   1.355       .  A
C282        C407   1.482       .  S
N283        C284   1.365       .  A
C284        N285   1.362       .  A
C284        C455   1.480       .  S
N285        C286   1.356       .  A
C286        N287   1.357       .  A
C286        C422   1.495       .  S
C288        N289   1.361       .  A
C288        N293   1.355       .  A
C288        C383   1.479       .  S
N289        C290   1.363       .  A
C290        N291   1.361       .  A
C290        C398   1.485       .  S
N291        C292   1.356       .  A
C292        N293   1.357       .  A
C292        C371   1.478       .  S
C294        N295   1.355       .  A
C294        N299   1.360       .  A
C294        C359   1.476       .  S
N295        C296   1.357       .  A
C296        N297   1.358       .  A
C296        C347   1.483       .  S
N297        C298   1.361       .  A
C298        N299   1.362       .  A
C298        C395   1.483       .  S
O300       Mn326   2.077       .  S
O300        C853   1.268   1_545  A
C301        C479   1.487       .  S
C301        O334   1.270       .  A
C301        O331   1.275       .  A
O302       Mn309   2.176       .  S
O302       Mn320   2.114       .  S
O302       Mn324   2.176       .  S
O302       Mn852   2.125       .  S
O303       Mn337   2.109       .  S
O303        C313   1.273       .  A
O304       Mn320   2.120       .  S
O304        C327   1.276       .  A
O305       Mn324   2.123       .  S
O305        C332   1.255       .  A
O306      Mn1389   1.949       .  S
O306       Mn326   1.942       .  S
O306        C322   1.212       .  S
C307        C446   1.492       .  S
C307        O310   1.255       .  A
C307        O333   1.216       .  S
O308      Mn1380   2.111       .  S
O308       Mn309   2.172       .  S
O308       Mn342   2.125       .  S
O308       Mn324   2.180       .  S
Mn309      O1390   2.133       .  S
Mn309       O314   2.110       .  S
Mn309       O867   2.109       .  S
Mn309      O1893   2.172       .  S
O310      Mn1376   2.126   1_455  S
O311       Mn318   2.088       .  S
O311        C313   1.270       .  A
C312        C419   1.489       .  S
C312        O338   1.255       .  A
C312        O325   1.209       .  S
C313        C506   1.482       .  S
O314        C339   1.255       .  A
O315      Mn1887   2.171   1_445  S
O315       Mn318   2.122       .  S
O315       Mn337   2.105       .  S
O315      Mn1902   2.176   1_445  S
O316       Mn320   1.971       .  S
O316       Mn342   1.966       .  S
O316        C339   1.220       .  S
C317        C386   1.494       .  S
C317       O1395   1.277       .  A
C317        O319   1.272       .  A
Mn318       O331   2.115       .  S
Mn318       O859   1.953   1_545  S
Mn318       O851   1.940   1_545  S
O319       Mn342   2.088       .  S
Mn320       O336   2.095       .  S
Mn320       O330   1.957       .  S
O321       Mn326   2.098       .  S
O321        C849   1.273   1_545  A
C322        C374   1.483       .  S
C322        O340   1.256       .  A
C323        C410   1.492       .  S
C323        O847   1.273       .  A
C323        O336   1.272       .  A
Mn324      O1362   2.127       .  S
Mn324       O866   2.126       .  S
Mn324      O1893   2.176       .  S
O325       Mn844   1.940       .  S
O325       Mn328   1.965       .  S
Mn326       O828   2.126   1_545  S
Mn326       O344   1.953       .  S
C327        C434   1.483       .  S
C327        O826   1.268       .  A
Mn328       O335   2.120       .  S
Mn328       O343   2.120       .  S
Mn328      O1360   2.112   1_455  S
Mn328       O333   1.968       .  S
C329        C362   1.493       .  S
C329       O1387   1.276       .  A
C329        O345   1.274       .  A
O330       Mn342   1.952       .  S
O330        C332   1.217       .  S
C332        C494   1.491       .  S
O333       Mn844   1.953       .  S
O334       Mn337   2.081       .  S
O335       C1381   1.276   1_455  A
Mn337      O1358   1.949   1_455  S
Mn337      O1396   1.966   1_455  S
O338      Mn1361   2.133   1_455  S
C339        C467   1.484       .  S
O340       Mn850   2.127   1_545  S
O341       Mn835   2.110   1_545  S
O341        C346   1.252       .  A
Mn342       O345   2.099       .  S
O343       C1369   1.276   1_455  A
O344      Mn1389   1.966       .  S
O344        C346   1.217       .  S
C346        C350   1.483       .  S
C347        C348   1.407       .  A
C347       C1404   1.414       .  A
C348        C349   1.404       .  A
C348        H357   1.084       .  S
C349        C350   1.416       .  A
C349        S353   1.802       .  S
C350       C1403   1.405       .  A
C351       C1402   1.405   1_455  A
C351        C352   1.394       .  A
C351        H358   1.085       .  S
C352       C1399   1.414   1_455  A
C352        S354   1.805       .  S
S353        H882   1.405       .  S
S354        H355   1.407       .  S
H356        S879   1.405       .  S
C359        C360   1.397       .  A
C359        C364   1.412       .  A
C360        C361   1.399       .  A
C360        H369   1.085       .  S
C361        C362   1.419       .  A
C361        S365   1.790       .  S
C362        C363   1.408       .  A
C363        C364   1.403       .  A
C363        H370   1.084       .  S
C364        S366   1.804       .  S
S365        H368   1.397       .  S
S366        H367   1.406       .  S
C371       C1424   1.399       .  A
C371        C376   1.414       .  A
C372       C1423   1.399       .  A
C372        C373   1.395   1_655  A
C372        H381   1.083   1_655  S
C373       C1426   1.419   1_455  A
C373        S377   1.811       .  S
C374       C1425   1.419       .  A
C374        C375   1.406       .  A
C375        C376   1.405       .  A
C375        H382   1.083       .  S
C376        S378   1.802       .  S
S377        H380   1.406       .  S
S378        H379   1.407       .  S
C383       C1436   1.401       .  A
C383        C388   1.412       .  A
C384       C1435   1.401       .  A
C384        C385   1.403       .  A
C384        H393   1.084   1_655  S
C385       C1438   1.418       .  A
C385        S389   1.796   1_655  S
C386       C1437   1.418       .  A
C386        C387   1.409       .  A
C387        C388   1.401       .  A
C387        H394   1.084       .  S
C388        S390   1.805       .  S
S389        H392   1.400       .  S
S390        H391   1.406       .  S
C395       C1185   1.405   1_556  A
C396       C1184   1.405       .  A
C396        C397   1.404       .  A
C396        H405   1.084   1_655  S
C397       C1450   1.417       .  A
C397        S401   1.803   1_655  S
C398       C1449   1.417       .  A
C398        C399   1.404       .  A
C399        C400   1.398       .  A
C399        H406   1.084       .  S
C400        S402   1.802       .  S
S401        H404   1.407       .  S
C407        C408   1.402       .  A
C407        C938   1.413       .  A
C408        C409   1.397       .  A
C408        H417   1.085       .  S
C409        C410   1.419       .  A
C409        S413   1.804       .  S
C410        C937   1.409       .  A
C411        C936   1.410   1_545  A
C411        C412   1.405       .  A
C411        H418   1.083       .  S
C412        C933   1.413   1_545  A
C412        S414   1.801       .  S
S413        H416   1.408       .  S
S414        H415   1.406       .  S
C419        C946   1.405       .  A
C419        C424   1.421       .  A
C420        C945   1.405       .  A
C420        C421   1.406       .  A
C420        H429   1.084       .  S
C421        C948   1.420       .  A
C421        S425   1.798   1_565  S
C422        C947   1.420       .  A
C422        C423   1.404       .  A
C423        C424   1.395       .  A
C423        H430   1.082       .  S
C424        S426   1.813       .  S
S425        H428   1.407   1_545  S
S426        H427   1.407       .  S
C431        C432   1.404       .  A
C431        C436   1.411       .  A
C432        C433   1.402       .  A
C432        H441   1.084       .  S
C433        C434   1.414       .  A
C433        S437   1.797       .  S
C434        C435   1.406       .  A
C435        C436   1.397       .  A
C435        H968   1.084       .  S
C436        S964   1.804       .  S
S437        H440   1.405       .  S
S438        C962   1.804       .  S
S438        H439   1.407       .  S
H442        C961   1.084       .  S
C443        C970   1.409       .  A
C443        C448   1.416       .  A
C444        C969   1.409       .  A
C444        C445   1.407       .  A
C444        H453   1.083   1_565  S
C445        C972   1.415       .  A
C445        S449   1.798   1_565  S
C446        C971   1.415       .  A
C446        C447   1.407       .  A
C447        C448   1.392       .  A
C447        H454   1.083       .  S
C448        S450   1.805       .  S
S449        H452   1.407   1_545  S
S450        H451   1.407       .  S
C455        C723   1.413   1_556  A
C456        C457   1.399       .  A
C457        C458   1.414       .  A
C457        S461   1.804       .  S
C458        C985   1.405       .  A
C459        C984   1.405   1_545  A
C459        C460   1.401       .  A
C459        H466   1.084       .  S
C460        C718   1.413   1_545  A
C460        S462   1.800       .  S
S461        H464   1.407       .  S
C467        C468   1.405       .  A
C467        C472   1.417       .  A
C468        C469   1.395       .  A
C468        H477   1.084       .  S
C469        C470   1.412       .  A
C469        S473   1.804       .  S
C470        C471   1.404       .  A
C471        C472   1.403       .  A
C471        H478   1.084       .  S
C472        S474   1.798       .  S
S473        H476   1.407       .  S
S474        H475   1.397       .  S
C479        C480   1.408       .  A
C479        C484   1.417       .  A
C480        C481   1.410       .  A
C480        H489   1.083       .  S
C481        C482   1.416       .  A
C481        S485   1.801       .  S
C482        C483   1.402       .  A
C483        C484   1.394       .  A
C483        H490   1.084       .  S
C484        S486   1.806       .  S
S485        H488   1.406       .  S
S486        H487   1.408       .  S
C491        C492   1.407       .  A
C491        C496   1.415       .  A
C492        C493   1.407       .  A
C492        H501   1.084       .  S
C493        C494   1.417       .  A
C493        S497   1.798       .  S
C494        C495   1.406       .  A
C495        C496   1.396       .  A
C495        H502   1.084       .  S
C496        S498   1.805       .  S
S497        H500   1.400       .  S
S498        H499   1.407       .  S
C503        C504   1.403       .  A
C503        C508   1.412       .  A
C504        C505   1.401       .  A
C504        H513   1.084       .  S
C505        C506   1.415       .  A
C505        S509   1.798       .  S
C506        C507   1.405       .  A
C507        C508   1.398       .  A
C507        H514   1.084       .  S
C508        S510   1.804       .  S
S509        H512   1.404       .  S
S510        H511   1.407       .  S
C516        C517   1.404       .  A
C516        H525   1.084       .  S
C517        C518   1.418       .  A
C517        S521   1.803       .  S
C518        C519   1.403       .  A
C519        C520   1.398       .  A
C519        H526   1.084       .  S
S521        H524   1.407       .  S
S522        H523   1.407       .  S
C527        N528   1.355       .  A
C527        N532   1.357       .  A
C527        C766   1.477       .  S
N528        C529   1.357       .  A
C529        N530   1.361       .  A
C529        C754   1.488       .  S
N530        C531   1.365       .  A
C531        N532   1.360       .  A
C531        C781   1.487       .  S
C533        N534   1.358       .  A
C533        N538   1.364       .  A
C533        C745   1.486       .  S
N534        C535   1.354       .  A
C535        N536   1.353       .  A
C535        C733   1.478       .  S
N536        C537   1.359       .  A
C537        N538   1.366       .  A
C537        C778   1.486       .  S
C539        N540   1.358       .  A
C539        N544   1.355       .  A
C539        C694   1.478   1_565  S
N540        C541   1.361       .  A
C541        N542   1.362       .  A
C541        C721   1.480       .  S
N542        C543   1.359       .  A
C543        N544   1.356       .  A
C543        C706   1.490       .  S
C545        N546   1.361       .  A
C545        N550   1.355       .  A
C545        C670   1.482       .  S
N546        C547   1.365       .  A
C547        N548   1.362       .  A
C547        C718   1.481       .  S
N548        C549   1.356       .  A
C549        N550   1.357       .  A
C549        C685   1.495       .  S
C551        N552   1.361       .  A
C551        N556   1.355       .  A
C551        C646   1.479       .  S
N552        C553   1.363       .  A
C553        N554   1.361       .  A
C553        C661   1.485       .  S
N554        C555   1.356       .  A
C555        N556   1.357       .  A
C555        C634   1.478       .  S
C557        N558   1.355       .  A
C557        N562   1.360       .  A
C557        C622   1.476       .  S
N558        C559   1.357       .  A
C559        N560   1.358       .  A
C559        C610   1.482       .  S
N560        C561   1.361       .  A
C561        N562   1.362       .  A
C561        C658   1.483       .  S
O563       Mn589   2.077       .  S
C564        C742   1.487       .  S
C564        O597   1.269       .  A
C564        O594   1.275       .  A
O565       Mn572   2.177       .  S
O565       Mn583   2.114       .  S
O565       Mn587   2.176       .  S
O566       Mn600   2.108       .  S
O566        C576   1.273       .  A
O567       Mn583   2.120       .  S
O567        C590   1.276       .  A
O568       Mn587   2.123       .  S
O568        C595   1.255       .  A
O569      Mn1652   1.948       .  S
O569       Mn589   1.942       .  S
O569        C585   1.212       .  S
C570        C709   1.492       .  S
C570        O573   1.255       .  A
C570        O596   1.216       .  S
O571      Mn1643   2.112       .  S
O571       Mn572   2.172       .  S
O571       Mn605   2.125       .  S
O571       Mn587   2.180       .  S
Mn572      O1653   2.133       .  S
Mn572       O577   2.109       .  S
Mn572      O1104   2.171   1_565  S
O573      Mn1639   2.126   1_455  S
O574       Mn581   2.088       .  S
O574        C576   1.270       .  A
C575        C682   1.489       .  S
C575        O601   1.255       .  A
C575        O588   1.209       .  S
C576        C769   1.481       .  S
O577        C602   1.255       .  A
O578      Mn1098   2.171   1_455  S
O578       Mn581   2.122       .  S
O578       Mn600   2.105       .  S
O578      Mn1113   2.176   1_455  S
O579       Mn583   1.971       .  S
O579       Mn605   1.967       .  S
O579        C602   1.220       .  S
C580        C649   1.494       .  S
C580       O1658   1.277       .  A
C580        O582   1.272       .  A
Mn581       O594   2.115       .  S
O582       Mn605   2.089       .  S
Mn583       O599   2.096       .  S
Mn583       O593   1.958       .  S
O584       Mn589   2.098       .  S
C585        C637   1.483       .  S
C585        O603   1.256       .  A
C586        C673   1.492       .  S
C586        O599   1.272       .  A
Mn587      O1625   2.126       .  S
Mn587      O1104   2.176   1_565  S
O588       Mn591   1.965       .  S
Mn589       O607   1.953       .  S
C590        C697   1.483       .  S
Mn591       O598   2.120       .  S
Mn591       O606   2.120       .  S
Mn591      O1623   2.111   1_455  S
Mn591       O596   1.968       .  S
C592        C625   1.493       .  S
C592       O1650   1.276       .  A
C592        O608   1.274       .  A
O593       Mn605   1.953       .  S
O593        C595   1.217       .  S
C595        C757   1.492       .  S
O597       Mn600   2.081       .  S
O598       C1644   1.276   1_455  A
Mn600      O1621   1.948   1_455  S
Mn600      O1659   1.965   1_455  S
O601      Mn1624   2.133   1_455  S
C602        C730   1.484       .  S
O604        C609   1.252       .  A
Mn605       O608   2.100       .  S
O606       C1632   1.277   1_455  A
O607      Mn1652   1.965       .  S
O607        C609   1.217       .  S
C609        C613   1.482       .  S
C610        C611   1.407       .  A
C610       C1667   1.414       .  A
C611        C612   1.404       .  A
C611        H620   1.084       .  S
C612        C613   1.416       .  A
C612        S616   1.802       .  S
C613       C1666   1.405       .  A
C614       C1665   1.405   1_455  A
C614        C615   1.393       .  A
C614        H621   1.085       .  S
C615       C1662   1.414   1_455  A
C615        S617   1.805       .  S
S617        H618   1.407       .  S
C622        C623   1.397       .  A
C622        C627   1.412       .  A
C623        C624   1.399       .  A
C623        H632   1.085       .  S
C624        C625   1.419       .  A
C624        S628   1.790       .  S
C625        C626   1.408       .  A
C626        C627   1.403       .  A
C626        H633   1.084       .  S
C627        S629   1.804       .  S
S628        H631   1.397       .  S
S629        H630   1.406       .  S
C634       C1687   1.399       .  A
C634        C639   1.414       .  A
C635       C1686   1.399       .  A
C635        C636   1.395   1_655  A
C635        H644   1.083   1_655  S
C636       C1689   1.419   1_455  A
C636        S640   1.811       .  S
C637       C1688   1.419       .  A
C637        C638   1.406       .  A
C638        C639   1.405       .  A
C638        H645   1.083       .  S
C639        S641   1.802       .  S
S640        H643   1.406       .  S
S641        H642   1.407       .  S
C646       C1699   1.401       .  A
C646        C651   1.412       .  A
C647       C1698   1.401       .  A
C647        C648   1.403       .  A
C647        H656   1.084   1_655  S
C648       C1701   1.418       .  A
C648        S652   1.796   1_655  S
C649       C1700   1.418       .  A
C649        C650   1.409       .  A
C650        C651   1.401       .  A
C650        H657   1.084       .  S
C651        S653   1.805       .  S
S652        H655   1.400       .  S
S653        H654   1.406       .  S
C658       C1974   1.405       .  A
C658        C926   1.414       .  A
C659       C1973   1.405   1_554  A
C659        C660   1.404       .  A
C659        H668   1.084   1_655  S
C660       C1713   1.417       .  A
C660        S664   1.803   1_655  S
C661       C1712   1.417       .  A
C661        C662   1.404       .  A
C662        C663   1.398       .  A
C662        H669   1.084       .  S
C663        C921   1.415   1_554  A
C663        S665   1.803   1_554  S
S664        H667   1.408       .  S
S665        H929   1.407       .  S
H666        S928   1.407       .  S
C670        C671   1.402       .  A
C671        C672   1.397       .  A
C671        H680   1.085       .  S
C672        C673   1.419       .  A
C672        S676   1.804       .  S
C674        C675   1.405       .  A
C674        H681   1.083       .  S
C675        S677   1.800       .  S
S676        H679   1.408       .  S
S677        H678   1.406       .  S
C682        C687   1.420       .  A
C683        C684   1.407       .  A
C683        H692   1.084       .  S
C684        S688   1.798       .  S
C685        C686   1.404       .  A
C686        C687   1.395       .  A
C686        H693   1.082       .  S
C687        S689   1.813       .  S
S688        H691   1.407       .  S
S689        H690   1.407       .  S
C694        C695   1.404   1_545  A
C694        C699   1.412       .  A
C695        C696   1.403       .  A
C695        H704   1.084       .  S
C696        C697   1.414       .  A
C696        S700   1.797       .  S
C697        C698   1.406   1_565  A
C698        C699   1.397       .  A
S700        H703   1.405       .  S
S701        H702   1.407       .  S
C706        C711   1.416       .  A
C707        C708   1.407       .  A
C707        H716   1.083       .  S
C708        S712   1.798       .  S
C709        C710   1.407       .  A
C710        C711   1.392       .  A
C710        H717   1.083       .  S
C711        S713   1.805       .  S
S712        H715   1.407       .  S
S713        H714   1.407       .  S
C718        C982   1.404       .  A
C719        C981   1.404   1_554  A
C719        C720   1.399       .  A
C719        H991   1.084       .  S
C720        C721   1.414       .  A
C720        S724   1.804       .  S
C722        C723   1.401       .  A
C722        H729   1.084       .  S
C723        S725   1.800   1_554  S
S724        H727   1.407       .  S
S725        H989   1.407       .  S
H726        S988   1.407       .  S
H728        C982   1.084       .  S
C730        C731   1.405       .  A
C730        C735   1.417       .  A
C731        C732   1.395       .  A
C731        H740   1.084       .  S
C732        C733   1.412       .  A
C732        S736   1.804       .  S
C733        C734   1.404       .  A
C734        C735   1.402       .  A
C734        H741   1.084       .  S
C735        S737   1.797       .  S
S736        H739   1.407       .  S
S737        H738   1.397       .  S
C742        C743   1.408       .  A
C742        C747   1.417       .  A
C743        C744   1.410       .  A
C743        H752   1.084       .  S
C744        C745   1.416       .  A
C744        S748   1.801       .  S
C745        C746   1.402       .  A
C746        C747   1.393       .  A
C746        H753   1.084       .  S
C747        S749   1.806       .  S
S748        H751   1.406       .  S
S749        H750   1.408       .  S
C754        C755   1.407       .  A
C754        C759   1.415       .  A
C755        C756   1.407       .  A
C755        H764   1.084       .  S
C756        C757   1.417       .  A
C756        S760   1.798       .  S
C757        C758   1.406       .  A
C758        C759   1.396       .  A
C758        H765   1.084       .  S
C759        S761   1.805       .  S
S760        H763   1.401       .  S
S761        H762   1.407       .  S
C766        C767   1.403       .  A
C766        C771   1.413       .  A
C767        C768   1.401       .  A
C767        H776   1.084       .  S
C768        C769   1.414       .  A
C768        S772   1.799       .  S
C769        C770   1.405       .  A
C770        C771   1.398       .  A
C770        H777   1.084       .  S
C771        S773   1.804       .  S
S772        H775   1.404       .  S
S773        H774   1.407       .  S
C778       C1042   1.404       .  A
C778       C1046   1.418       .  A
C779       C1041   1.404   1_554  A
C779        C780   1.404       .  A
C779        H788   1.084       .  S
C780        C781   1.419       .  A
C780        S784   1.803       .  S
C781        C782   1.403       .  A
C782        C783   1.398       .  A
C782        H789   1.084       .  S
C783       C1041   1.418   1_554  A
C783       S1048   1.805   1_554  S
S784        H787   1.407       .  S
S785       C1046   1.805       .  S
S785        H786   1.407       .  S
C790        N791   1.356       .  A
C790        N795   1.357       .  A
C790       C1029   1.477       .  S
N791        C792   1.357       .  A
C792        N793   1.361       .  A
C792       C1017   1.488       .  S
N793        C794   1.364       .  A
C794        N795   1.360       .  A
C794       C1044   1.486       .  S
C796        N797   1.358       .  A
C796        N801   1.364       .  A
C796       C1008   1.486       .  S
N797        C798   1.354       .  A
C798        N799   1.354       .  A
C798        C996   1.478       .  S
N799        C800   1.360       .  A
C800        N801   1.366       .  A
C800       C1041   1.486       .  S
C802        N803   1.358       .  A
C802        N807   1.355       .  A
C802        C957   1.478   1_565  S
N803        C804   1.361       .  A
C804        N805   1.362       .  A
C804        C984   1.480       .  S
N805        C806   1.359       .  A
C806        N807   1.356       .  A
C806        C969   1.489       .  S
C808        N809   1.361       .  A
C808        N813   1.355       .  A
C808        C933   1.482       .  S
N809        C810   1.365       .  A
C810        N811   1.362       .  A
C810        C981   1.480       .  S
N811        C812   1.356       .  A
C812        N813   1.358       .  A
C812        C948   1.495       .  S
C814        N815   1.361       .  A
C814        N819   1.355       .  A
C814        C909   1.479       .  S
N815        C816   1.363       .  A
C816        N817   1.361       .  A
C816        C924   1.485       .  S
N817        C818   1.356       .  A
C818        N819   1.357       .  A
C818        C897   1.478       .  S
C820        N821   1.355       .  A
C820        N825   1.360       .  A
C820        C885   1.476       .  S
N821        C822   1.357       .  A
C822        N823   1.358       .  A
C822        C873   1.482       .  S
N823        C824   1.361       .  A
C824        N825   1.362       .  A
C824        C921   1.483       .  S
O826       Mn852   2.077       .  S
C827       C1005   1.487       .  S
C827        O860   1.270       .  A
C827        O857   1.275       .  A
O828       Mn835   2.176       .  S
O828       Mn846   2.114       .  S
O828       Mn850   2.176       .  S
O829       Mn863   2.109       .  S
O829        C839   1.273       .  A
O830       Mn846   2.119       .  S
O830        C853   1.276       .  A
O831       Mn850   2.123       .  S
O831        C858   1.255       .  A
O832      Mn1915   1.949       .  S
O832       Mn852   1.942       .  S
O832        C848   1.212       .  S
C833        C972   1.491       .  S
C833        O836   1.255       .  A
C833        O859   1.216       .  S
O834      Mn1906   2.112       .  S
O834       Mn835   2.172       .  S
O834       Mn868   2.125       .  S
O834       Mn850   2.180       .  S
Mn835      O1916   2.132       .  S
Mn835       O840   2.109       .  S
Mn835      O1367   2.172   1_565  S
O836      Mn1902   2.125   1_455  S
O837       Mn844   2.088       .  S
O837        C839   1.271       .  A
C838        C945   1.489       .  S
C838        O864   1.255       .  A
C838        O851   1.209       .  S
C839       C1032   1.481       .  S
O840        C865   1.255       .  A
O841      Mn1361   2.171   1_455  S
O841       Mn844   2.122       .  S
O841       Mn863   2.105       .  S
O841      Mn1376   2.176   1_455  S
O842       Mn846   1.972       .  S
O842       Mn868   1.966       .  S
O842        C865   1.221       .  S
C843        C912   1.494       .  S
C843       O1921   1.277       .  A
C843        O845   1.272       .  A
Mn844       O857   2.115       .  S
O845       Mn868   2.089       .  S
Mn846       O862   2.096       .  S
Mn846       O856   1.957       .  S
O847       Mn852   2.097       .  S
C848        C900   1.483       .  S
C848        O866   1.256       .  A
C849        C936   1.492       .  S
C849        O862   1.272       .  A
Mn850      O1888   2.126       .  S
Mn850      O1367   2.176   1_565  S
O851       Mn854   1.965       .  S
Mn852       O870   1.952       .  S
C853        C960   1.483       .  S
Mn854       O861   2.120       .  S
Mn854       O869   2.120       .  S
Mn854      O1886   2.112   1_455  S
Mn854       O859   1.967       .  S
C855        C888   1.493       .  S
C855       O1913   1.276       .  A
C855        O871   1.274       .  A
O856       Mn868   1.952       .  S
O856        C858   1.217       .  S
C858       C1020   1.491       .  S
O860       Mn863   2.081       .  S
O861       C1907   1.276   1_455  A
Mn863      O1884   1.949   1_455  S
Mn863      O1922   1.966   1_455  S
O864      Mn1887   2.133   1_455  S
C865        C993   1.484       .  S
O867        C872   1.252       .  A
Mn868       O871   2.099       .  S
O869       C1895   1.277   1_455  A
O870      Mn1915   1.965       .  S
O870        C872   1.217       .  S
C872        C876   1.482       .  S
C873        C874   1.407       .  A
C873       C1930   1.414       .  A
C874        C875   1.404       .  A
C874        H883   1.084       .  S
C875        C876   1.416       .  A
C875        S879   1.802       .  S
C876       C1929   1.405       .  A
C877       C1928   1.405   1_455  A
C877        C878   1.394       .  A
C877        H884   1.085       .  S
C878       C1925   1.414   1_455  A
C878        S880   1.805       .  S
S880        H881   1.407       .  S
C885        C886   1.397       .  A
C885        C890   1.412       .  A
C886        C887   1.399       .  A
C886        H895   1.085       .  S
C887        C888   1.418       .  A
C887        S891   1.790       .  S
C888        C889   1.408       .  A
C889        C890   1.403       .  A
C889        H896   1.084       .  S
C890        S892   1.804       .  S
S891        H894   1.397       .  S
S892        H893   1.406       .  S
C897       C1950   1.399       .  A
C897        C902   1.414       .  A
C898       C1949   1.399       .  A
C898        C899   1.395   1_655  A
C898        H907   1.083   1_655  S
C899       C1952   1.419   1_455  A
C899        S903   1.811       .  S
C900       C1951   1.419       .  A
C900        C901   1.406       .  A
C901        C902   1.405       .  A
C901        H908   1.083       .  S
C902        S904   1.802       .  S
S903        H906   1.406       .  S
S904        H905   1.407       .  S
C909       C1962   1.401       .  A
C909        C914   1.412       .  A
C910       C1961   1.401       .  A
C910        C911   1.403       .  A
C910        H919   1.084   1_655  S
C911       C1964   1.418       .  A
C911        S915   1.796   1_655  S
C912       C1963   1.418       .  A
C912        C913   1.409       .  A
C913        C914   1.401       .  A
C913        H920   1.084       .  S
C914        S916   1.805       .  S
S915        H918   1.399       .  S
S916        H917   1.406       .  S
C921       C1711   1.405   1_556  A
C922       C1710   1.405       .  A
C922        C923   1.404       .  A
C922        H931   1.084   1_655  S
C923       C1976   1.417       .  A
C923        S927   1.803   1_655  S
C924       C1975   1.417       .  A
C924        C925   1.404       .  A
C925        C926   1.398       .  A
C925        H932   1.084       .  S
C926        S928   1.803       .  S
S927        H930   1.408       .  S
C933        C934   1.402       .  A
C934        C935   1.397       .  A
C934        H943   1.084       .  S
C935        C936   1.419       .  A
C935        S939   1.804       .  S
C937        C938   1.405       .  A
C937        H944   1.083       .  S
C938        S940   1.800       .  S
S939        H942   1.408       .  S
S940        H941   1.406       .  S
C945        C950   1.420       .  A
C946        C947   1.406       .  A
C946        H955   1.084       .  S
C947        S951   1.798       .  S
C948        C949   1.404       .  A
C949        C950   1.395       .  A
C949        H956   1.082       .  S
C950        S952   1.813       .  S
S951        H954   1.407       .  S
S952        H953   1.407       .  S
C957        C958   1.404   1_545  A
C957        C962   1.412       .  A
C958        C959   1.403       .  A
C958        H967   1.084       .  S
C959        C960   1.414       .  A
C959        S963   1.797       .  S
C960        C961   1.406   1_565  A
C961        C962   1.397       .  A
S963        H966   1.405       .  S
S964        H965   1.407       .  S
C969        C974   1.416       .  A
C970        C971   1.407       .  A
C970        H979   1.083       .  S
C971        S975   1.798       .  S
C972        C973   1.406       .  A
C973        C974   1.392       .  A
C973        H980   1.083       .  S
C974        S976   1.805       .  S
S975        H978   1.407       .  S
S976        H977   1.407       .  S
C982        C983   1.399       .  A
C983        C984   1.414       .  A
C983        S987   1.804       .  S
C985        C986   1.401       .  A
C985        H992   1.084       .  S
C986        S988   1.800       .  S
S987        H990   1.407       .  S
C993        C994   1.405       .  A
C993        C998   1.417       .  A
C994        C995   1.395       .  A
C994       H1003   1.084       .  S
C995        C996   1.412       .  A
C995        S999   1.804       .  S
C996        C997   1.404       .  A
C997        C998   1.403       .  A
C997       H1004   1.084       .  S
C998       S1000   1.798       .  S
S999       H1002   1.407       .  S
S1000      H1001   1.397       .  S
C1005      C1006   1.408       .  A
C1005      C1010   1.417       .  A
C1006      C1007   1.410       .  A
C1006      H1015   1.083       .  S
C1007      C1008   1.416       .  A
C1007      S1011   1.801       .  S
C1008      C1009   1.402       .  A
C1009      C1010   1.394       .  A
C1009      H1016   1.084       .  S
C1010      S1012   1.806       .  S
S1011      H1014   1.406       .  S
S1012      H1013   1.408       .  S
C1017      C1018   1.407       .  A
C1017      C1022   1.415       .  A
C1018      C1019   1.407       .  A
C1018      H1027   1.084       .  S
C1019      C1020   1.417       .  A
C1019      S1023   1.798       .  S
C1020      C1021   1.406       .  A
C1021      C1022   1.395       .  A
C1021      H1028   1.084       .  S
C1022      S1024   1.805       .  S
S1023      H1026   1.400       .  S
S1024      H1025   1.407       .  S
C1029      C1030   1.403       .  A
C1029      C1034   1.412       .  A
C1030      C1031   1.402       .  A
C1030      H1039   1.084       .  S
C1031      C1032   1.415       .  A
C1031      S1035   1.799       .  S
C1032      C1033   1.405       .  A
C1033      C1034   1.398       .  A
C1033      H1040   1.084       .  S
C1034      S1036   1.804       .  S
S1035      H1038   1.404       .  S
S1036      H1037   1.407       .  S
C1042      C1043   1.404       .  A
C1042      H1051   1.084       .  S
C1043      C1044   1.418       .  A
C1043      S1047   1.803       .  S
C1044      C1045   1.403       .  A
C1045      C1046   1.398       .  A
C1045      H1052   1.084       .  S
S1047      H1050   1.407       .  S
S1048      H1049   1.407       .  S
C1053      N1054   1.356       .  A
C1053      N1058   1.358       .  A
C1053      C1292   1.477       .  S
N1054      C1055   1.357       .  A
C1055      N1056   1.361       .  A
C1055      C1280   1.488       .  S
N1056      C1057   1.365       .  A
C1057      N1058   1.360       .  A
C1057      C1307   1.487       .  S
C1059      N1060   1.358       .  A
C1059      N1064   1.364       .  A
C1059      C1271   1.486       .  S
N1060      C1061   1.354       .  A
C1061      N1062   1.353       .  A
C1061      C1259   1.478       .  S
N1062      C1063   1.359       .  A
C1063      N1064   1.366       .  A
C1063      C1304   1.485       .  S
C1065      N1066   1.358       .  A
C1065      N1070   1.355       .  A
C1065      C1220   1.478       .  S
N1066      C1067   1.361       .  A
C1067      N1068   1.362       .  A
C1067      C1247   1.480       .  S
N1068      C1069   1.359       .  A
C1069      N1070   1.356       .  A
C1069      C1232   1.490       .  S
C1071      N1072   1.361       .  A
C1071      N1076   1.355       .  A
C1071      C1196   1.482       .  S
N1072      C1073   1.365       .  A
C1073      N1074   1.362       .  A
C1073      C1244   1.481       .  S
N1074      C1075   1.356       .  A
C1075      N1076   1.357       .  A
C1075      C1211   1.495       .  S
C1077      N1078   1.361       .  A
C1077      N1082   1.355       .  A
C1077      C1172   1.479       .  S
N1078      C1079   1.364       .  A
C1079      N1080   1.361       .  A
C1079      C1187   1.486       .  S
N1080      C1081   1.356       .  A
C1081      N1082   1.357       .  A
C1081      C1160   1.478       .  S
C1083      N1084   1.355       .  A
C1083      N1088   1.360       .  A
C1083      C1148   1.476       .  S
N1084      C1085   1.357       .  A
C1085      N1086   1.358       .  A
C1085      C1136   1.482       .  S
N1086      C1087   1.361       .  A
C1087      N1088   1.362       .  A
C1087      C1184   1.483       .  S
O1089     Mn1115   2.078       .  S
O1089      C1642   1.268   1_545  A
C1090      C1268   1.487       .  S
C1090      O1123   1.269       .  A
C1090      O1120   1.275       .  A
O1091     Mn1098   2.177       .  S
O1091     Mn1109   2.114       .  S
O1091     Mn1113   2.176       .  S
O1091     Mn1641   2.126       .  S
O1092     Mn1126   2.109       .  S
O1092      C1102   1.273       .  A
O1093     Mn1109   2.120       .  S
O1093      C1116   1.276       .  A
O1094     Mn1113   2.124       .  S
O1094      C1121   1.255       .  A
O1095     Mn1115   1.942       .  S
O1095      C1111   1.212       .  S
C1096      C1235   1.492       .  S
C1096      O1099   1.255       .  A
C1096      O1122   1.216       .  S
O1097     Mn1098   2.172       .  S
O1097     Mn1131   2.125       .  S
O1097     Mn1113   2.180       .  S
Mn1098     O1103   2.109       .  S
Mn1098     O1656   2.108       .  S
O1100     Mn1107   2.088       .  S
O1100      C1102   1.270       .  A
C1101      C1208   1.489       .  S
C1101      O1127   1.255       .  A
C1101      O1114   1.209       .  S
C1102      C1295   1.482       .  S
O1103      C1128   1.255       .  A
O1104     Mn1107   2.122       .  S
O1104     Mn1126   2.105       .  S
O1105     Mn1109   1.972       .  S
O1105     Mn1131   1.966       .  S
O1105      C1128   1.220       .  S
C1106      C1175   1.494       .  S
C1106      O1108   1.272       .  A
Mn1107     O1120   2.115       .  S
Mn1107     O1648   1.953   1_545  S
Mn1107     O1640   1.940   1_545  S
O1108     Mn1131   2.089       .  S
Mn1109     O1125   2.096       .  S
Mn1109     O1119   1.957       .  S
O1110     Mn1115   2.097       .  S
O1110      C1638   1.273   1_545  A
C1111      C1163   1.483       .  S
C1111      O1129   1.256       .  A
C1112      C1199   1.492       .  S
C1112      O1636   1.273       .  A
C1112      O1125   1.272       .  A
Mn1113     O1655   2.127       .  S
O1114     Mn1633   1.939       .  S
O1114     Mn1117   1.965       .  S
Mn1115     O1617   2.126   1_545  S
Mn1115     O1133   1.953       .  S
C1116      C1223   1.484       .  S
C1116      O1615   1.268       .  A
Mn1117     O1124   2.119       .  S
Mn1117     O1132   2.120       .  S
Mn1117     O1122   1.967       .  S
C1118      C1151   1.493       .  S
C1118      O1134   1.274       .  A
O1119     Mn1131   1.953       .  S
O1119      C1121   1.217       .  S
C1121      C1283   1.492       .  S
O1122     Mn1633   1.953       .  S
O1123     Mn1126   2.080       .  S
C1128      C1256   1.484       .  S
O1129     Mn1639   2.127   1_545  S
O1130     Mn1624   2.109   1_545  S
O1130      C1135   1.252       .  A
Mn1131     O1134   2.100       .  S
O1133      C1135   1.217       .  S
C1135      C1139   1.483       .  S
C1136      C1137   1.407       .  A
C1137      C1138   1.404       .  A
C1137      H1146   1.084       .  S
C1138      C1139   1.416       .  A
C1138      S1142   1.802       .  S
C1140      C1141   1.394       .  A
C1140      H1147   1.085       .  S
C1141      S1143   1.805       .  S
S1142      H1671   1.405       .  S
S1143      H1144   1.407       .  S
H1145      S1668   1.405       .  S
C1148      C1149   1.397       .  A
C1148      C1153   1.412       .  A
C1149      C1150   1.399       .  A
C1149      H1158   1.085   1_655  S
C1150      C1151   1.419       .  A
C1150      S1154   1.790   1_655  S
C1151      C1152   1.408       .  A
C1152      C1153   1.403       .  A
C1152      H1159   1.084       .  S
C1153      S1155   1.804       .  S
S1154      H1157   1.397       .  S
S1155      H1156   1.406       .  S
C1160      C1165   1.414       .  A
C1161      C1162   1.395       .  A
C1161      H1170   1.083       .  S
C1162      S1166   1.811       .  S
C1163      C1164   1.406       .  A
C1164      C1165   1.405       .  A
C1164      H1171   1.083       .  S
C1165      S1167   1.803       .  S
S1166      H1169   1.406       .  S
S1167      H1168   1.407       .  S
C1172      C1177   1.412       .  A
C1173      C1174   1.403       .  A
C1173      H1182   1.084       .  S
C1174      S1178   1.796       .  S
C1175      C1176   1.409       .  A
C1176      C1177   1.401       .  A
C1176      H1183   1.084       .  S
C1177      S1179   1.805       .  S
S1178      H1181   1.400       .  S
S1179      H1180   1.406       .  S
C1184      C1452   1.414       .  A
C1185      C1186   1.404       .  A
C1185      H1194   1.084       .  S
C1186      S1190   1.803       .  S
C1187      C1188   1.404       .  A
C1188      C1189   1.398       .  A
C1188      H1195   1.084       .  S
C1189      C1447   1.415   1_554  A
C1189      S1191   1.803   1_554  S
S1190      H1193   1.407       .  S
S1191      H1455   1.407       .  S
H1192      S1454   1.407       .  S
C1196      C1197   1.403       .  A
C1196      C1727   1.413       .  A
C1197      C1198   1.397       .  A
C1197      H1206   1.084       .  S
C1198      C1199   1.419       .  A
C1198      S1202   1.804       .  S
C1199      C1726   1.409       .  A
C1200      C1725   1.409   1_545  A
C1200      C1201   1.405       .  A
C1200      H1207   1.083       .  S
C1201      C1722   1.413   1_545  A
C1201      S1203   1.800       .  S
S1202      H1205   1.408       .  S
S1203      H1204   1.406       .  S
C1208      C1735   1.405       .  A
C1208      C1213   1.420       .  A
C1209      C1734   1.405       .  A
C1209      C1210   1.406       .  A
C1209      H1218   1.084       .  S
C1210      C1737   1.420       .  A
C1210      S1214   1.798   1_565  S
C1211      C1736   1.420       .  A
C1211      C1212   1.404       .  A
C1212      C1213   1.395       .  A
C1212      H1219   1.082       .  S
C1213      S1215   1.813       .  S
S1214      H1217   1.407   1_545  S
S1215      H1216   1.407       .  S
C1220      C1221   1.404       .  A
C1220      C1225   1.411       .  A
C1221      C1222   1.403       .  A
C1221      H1230   1.084       .  S
C1222      C1223   1.414       .  A
C1222      S1226   1.797       .  S
C1223      C1224   1.406       .  A
C1224      C1225   1.397       .  A
C1224      H1757   1.084       .  S
C1225      S1753   1.804       .  S
S1226      H1229   1.405       .  S
S1227      C1751   1.804       .  S
S1227      H1228   1.407       .  S
H1231      C1750   1.084       .  S
C1232      C1759   1.410       .  A
C1232      C1237   1.416       .  A
C1233      C1758   1.410       .  A
C1233      C1234   1.407       .  A
C1233      H1242   1.083   1_565  S
C1234      C1761   1.415       .  A
C1234      S1238   1.798       .  S
C1235      C1760   1.415       .  A
C1235      C1236   1.407       .  A
C1236      C1237   1.392       .  A
C1236      H1243   1.083       .  S
C1237      S1239   1.805       .  S
S1238      H1241   1.407       .  S
S1239      H1240   1.407       .  S
C1244      C1508   1.404       .  A
C1244      C2038   1.413       .  A
C1245      C1507   1.404   1_554  A
C1245      C1246   1.399       .  A
C1245      H1517   1.084       .  S
C1246      C1247   1.414       .  A
C1246      S1250   1.804       .  S
C1247      C1774   1.405       .  A
C1248      C1773   1.405   1_545  A
C1248      C1249   1.401       .  A
C1248      H1255   1.084       .  S
C1249      C2033   1.413   1_544  A
C1249      S1251   1.800   1_554  S
S1250      H1253   1.407       .  S
S1251      H1515   1.407       .  S
H1252      S1514   1.407       .  S
H1254      C1508   1.084       .  S
C1256      C1257   1.405       .  A
C1256      C1261   1.417       .  A
C1257      C1258   1.395       .  A
C1257      H1266   1.084       .  S
C1258      C1259   1.412       .  A
C1258      S1262   1.804       .  S
C1259      C1260   1.404       .  A
C1260      C1261   1.403       .  A
C1260      H1267   1.084       .  S
C1261      S1263   1.798       .  S
S1262      H1265   1.407       .  S
S1263      H1264   1.397       .  S
C1268      C1269   1.408       .  A
C1268      C1273   1.417       .  A
C1269      C1270   1.410       .  A
C1269      H1278   1.083       .  S
C1270      C1271   1.416       .  A
C1270      S1274   1.801       .  S
C1271      C1272   1.402       .  A
C1272      C1273   1.393       .  A
C1272      H1279   1.084       .  S
C1273      S1275   1.806       .  S
S1274      H1277   1.406       .  S
S1275      H1276   1.408       .  S
C1280      C1281   1.407       .  A
C1280      C1285   1.415       .  A
C1281      C1282   1.407       .  A
C1281      H1290   1.084       .  S
C1282      C1283   1.417       .  A
C1282      S1286   1.798       .  S
C1283      C1284   1.406       .  A
C1284      C1285   1.396       .  A
C1284      H1291   1.084       .  S
C1285      S1287   1.805       .  S
S1286      H1289   1.401       .  S
S1287      H1288   1.407       .  S
C1292      C1293   1.403       .  A
C1292      C1297   1.413       .  A
C1293      C1294   1.402       .  A
C1293      H1302   1.084       .  S
C1294      C1295   1.415       .  A
C1294      S1298   1.799       .  S
C1295      C1296   1.405       .  A
C1296      C1297   1.398       .  A
C1296      H1303   1.084       .  S
C1297      S1299   1.804       .  S
S1298      H1301   1.404       .  S
S1299      H1300   1.407       .  S
C1304      C1568   1.404       .  A
C1304      C1572   1.418       .  A
C1305      C1567   1.404   1_554  A
C1305      C1306   1.404       .  A
C1305      H1314   1.084       .  S
C1306      C1307   1.419       .  A
C1306      S1310   1.803       .  S
C1307      C1308   1.403       .  A
C1308      C1309   1.398       .  A
C1308      H1315   1.084       .  S
C1309      C1567   1.418   1_554  A
C1309      S1574   1.805   1_554  S
S1310      H1313   1.407       .  S
S1311      C1572   1.805       .  S
S1311      H1312   1.407       .  S
C1316      N1317   1.356       .  A
C1316      N1321   1.357       .  A
C1316      C1555   1.477       .  S
N1317      C1318   1.357       .  A
C1318      N1319   1.361       .  A
C1318      C1543   1.487       .  S
N1319      C1320   1.364       .  A
C1320      N1321   1.360       .  A
C1320      C1570   1.486       .  S
C1322      N1323   1.358       .  A
C1322      N1327   1.364       .  A
C1322      C1534   1.486       .  S
N1323      C1324   1.354       .  A
C1324      N1325   1.354       .  A
C1324      C1522   1.478       .  S
N1325      C1326   1.360       .  A
C1326      N1327   1.367       .  A
C1326      C1567   1.486       .  S
C1328      N1329   1.358       .  A
C1328      N1333   1.355       .  A
C1328      C1483   1.478       .  S
N1329      C1330   1.361       .  A
C1330      N1331   1.362       .  A
C1330      C1510   1.481       .  S
N1331      C1332   1.359       .  A
C1332      N1333   1.356       .  A
C1332      C1495   1.490       .  S
C1334      N1335   1.361       .  A
C1334      N1339   1.355       .  A
C1334      C1459   1.482       .  S
N1335      C1336   1.365       .  A
C1336      N1337   1.362       .  A
C1336      C1507   1.480       .  S
N1337      C1338   1.356       .  A
C1338      N1339   1.357       .  A
C1338      C1474   1.495       .  S
C1340      N1341   1.361       .  A
C1340      N1345   1.355       .  A
C1340      C1435   1.479       .  S
N1341      C1342   1.363       .  A
C1342      N1343   1.361       .  A
C1342      C1450   1.485       .  S
N1343      C1344   1.356       .  A
C1344      N1345   1.357       .  A
C1344      C1423   1.478       .  S
C1346      N1347   1.355       .  A
C1346      N1351   1.360       .  A
C1346      C1411   1.476       .  S
N1347      C1348   1.357       .  A
C1348      N1349   1.358       .  A
C1348      C1399   1.482       .  S
N1349      C1350   1.361       .  A
C1350      N1351   1.362       .  A
C1350      C1447   1.483       .  S
O1352     Mn1378   2.077       .  S
O1352      C1905   1.268   1_545  A
C1353      C1531   1.487       .  S
C1353      O1386   1.270       .  A
C1353      O1383   1.275       .  A
O1354     Mn1361   2.177       .  S
O1354     Mn1372   2.114       .  S
O1354     Mn1376   2.176       .  S
O1354     Mn1904   2.126       .  S
O1355     Mn1389   2.109       .  S
O1355      C1365   1.273       .  A
O1356     Mn1372   2.120       .  S
O1356      C1379   1.276       .  A
O1357     Mn1376   2.123       .  S
O1357      C1384   1.255       .  A
O1358     Mn1378   1.942       .  S
O1358      C1374   1.212       .  S
C1359      C1498   1.492       .  S
C1359      O1362   1.255       .  A
C1359      O1385   1.215       .  S
O1360     Mn1361   2.171       .  S
O1360     Mn1394   2.125       .  S
O1360     Mn1376   2.180       .  S
Mn1361     O1366   2.109       .  S
Mn1361     O1919   2.109       .  S
O1363     Mn1370   2.088       .  S
O1363      C1365   1.270       .  A
C1364      C1471   1.489       .  S
C1364      O1390   1.255       .  A
C1364      O1377   1.209       .  S
C1365      C1558   1.482       .  S
O1366      C1391   1.255       .  A
O1367     Mn1370   2.122       .  S
O1367     Mn1389   2.105       .  S
O1368     Mn1372   1.971       .  S
O1368     Mn1394   1.966       .  S
O1368      C1391   1.220       .  S
C1369      C1438   1.494       .  S
C1369      O1371   1.272       .  A
Mn1370     O1383   2.114       .  S
Mn1370     O1911   1.953   1_545  S
Mn1370     O1903   1.940   1_545  S
O1371     Mn1394   2.089       .  S
Mn1372     O1388   2.096       .  S
Mn1372     O1382   1.957       .  S
O1373     Mn1378   2.098       .  S
O1373      C1901   1.273   1_545  A
C1374      C1426   1.483       .  S
C1374      O1392   1.256       .  A
C1375      C1462   1.492       .  S
C1375      O1899   1.273       .  A
C1375      O1388   1.272       .  A
Mn1376     O1918   2.126       .  S
O1377     Mn1896   1.939       .  S
O1377     Mn1380   1.965       .  S
Mn1378     O1880   2.126   1_545  S
Mn1378     O1396   1.952       .  S
C1379      C1486   1.484       .  S
C1379      O1878   1.268       .  A
Mn1380     O1387   2.119       .  S
Mn1380     O1395   2.120       .  S
Mn1380     O1385   1.968       .  S
C1381      C1414   1.493       .  S
C1381      O1397   1.274       .  A
O1382     Mn1394   1.952       .  S
O1382      C1384   1.217       .  S
C1384      C1546   1.491       .  S
O1385     Mn1896   1.953       .  S
O1386     Mn1389   2.080       .  S
C1391      C1519   1.484       .  S
O1392     Mn1902   2.127   1_545  S
O1393     Mn1887   2.109   1_545  S
O1393      C1398   1.252       .  A
Mn1394     O1397   2.099       .  S
O1396      C1398   1.217       .  S
C1398      C1402   1.483       .  S
C1399      C1400   1.407       .  A
C1400      C1401   1.404       .  A
C1400      H1409   1.084       .  S
C1401      C1402   1.416       .  A
C1401      S1405   1.802       .  S
C1403      C1404   1.394       .  A
C1403      H1410   1.085       .  S
C1404      S1406   1.805       .  S
S1405      H1934   1.405       .  S
S1406      H1407   1.407       .  S
H1408      S1931   1.405       .  S
C1411      C1412   1.397       .  A
C1411      C1416   1.412       .  A
C1412      C1413   1.399       .  A
C1412      H1421   1.085   1_655  S
C1413      C1414   1.419       .  A
C1413      S1417   1.790   1_655  S
C1414      C1415   1.408       .  A
C1415      C1416   1.403       .  A
C1415      H1422   1.084       .  S
C1416      S1418   1.804       .  S
S1417      H1420   1.397       .  S
S1418      H1419   1.406       .  S
C1423      C1428   1.414       .  A
C1424      C1425   1.395       .  A
C1424      H1433   1.083       .  S
C1425      S1429   1.811       .  S
C1426      C1427   1.406       .  A
C1427      C1428   1.405       .  A
C1427      H1434   1.083       .  S
C1428      S1430   1.802       .  S
S1429      H1432   1.406       .  S
S1430      H1431   1.407       .  S
C1435      C1440   1.412       .  A
C1436      C1437   1.403       .  A
C1436      H1445   1.084       .  S
C1437      S1441   1.796       .  S
C1438      C1439   1.409       .  A
C1439      C1440   1.401       .  A
C1439      H1446   1.084       .  S
C1440      S1442   1.805       .  S
S1441      H1444   1.399       .  S
S1442      H1443   1.406       .  S
C1448      C1449   1.404       .  A
C1448      H1457   1.084       .  S
C1449      S1453   1.803       .  S
C1450      C1451   1.404       .  A
C1451      C1452   1.398       .  A
C1451      H1458   1.084       .  S
C1452      S1454   1.802       .  S
S1453      H1456   1.408       .  S
C1459      C1460   1.402       .  A
C1459      C1990   1.413       .  A
C1460      C1461   1.397       .  A
C1460      H1469   1.084       .  S
C1461      C1462   1.419       .  A
C1461      S1465   1.804       .  S
C1462      C1989   1.409       .  A
C1463      C1988   1.409   1_545  A
C1463      C1464   1.405       .  A
C1463      H1470   1.083       .  S
C1464      C1985   1.413   1_545  A
C1464      S1466   1.800       .  S
S1465      H1468   1.408       .  S
S1466      H1467   1.406       .  S
C1471      C1998   1.405       .  A
C1471      C1476   1.420       .  A
C1472      C1997   1.405       .  A
C1472      C1473   1.407       .  A
C1472      H1481   1.084       .  S
C1473      C2000   1.420       .  A
C1473      S1477   1.798   1_565  S
C1474      C1999   1.420       .  A
C1474      C1475   1.404       .  A
C1475      C1476   1.395       .  A
C1475      H1482   1.082       .  S
C1476      S1478   1.813       .  S
S1477      H1480   1.407   1_545  S
S1478      H1479   1.407       .  S
C1483      C1484   1.404       .  A
C1483      C1488   1.412       .  A
C1484      C1485   1.403       .  A
C1484      H1493   1.084       .  S
C1485      C1486   1.414       .  A
C1485      S1489   1.797       .  S
C1486      C1487   1.406       .  A
C1487      C1488   1.397       .  A
C1487      H2020   1.084       .  S
C1488      S2016   1.804       .  S
S1489      H1492   1.405       .  S
S1490      C2014   1.804       .  S
S1490      H1491   1.407       .  S
H1494      C2013   1.084       .  S
C1495      C2022   1.410       .  A
C1495      C1500   1.416       .  A
C1496      C2021   1.410       .  A
C1496      C1497   1.407       .  A
C1496      H1505   1.083   1_565  S
C1497      C2024   1.415       .  A
C1497      S1501   1.798       .  S
C1498      C2023   1.415       .  A
C1498      C1499   1.407       .  A
C1499      C1500   1.392       .  A
C1499      H1506   1.083       .  S
C1500      S1502   1.805       .  S
S1501      H1504   1.407       .  S
S1502      H1503   1.407       .  S
C1507      C1775   1.413   1_556  A
C1508      C1509   1.399       .  A
C1509      C1510   1.414       .  A
C1509      S1513   1.804       .  S
C1510      C2037   1.405       .  A
C1511      C2036   1.405   1_545  A
C1511      C1512   1.401       .  A
C1511      H1518   1.084       .  S
C1512      C1770   1.413   1_545  A
C1512      S1514   1.800       .  S
S1513      H1516   1.407       .  S
C1519      C1520   1.405       .  A
C1519      C1524   1.417       .  A
C1520      C1521   1.395       .  A
C1520      H1529   1.084       .  S
C1521      C1522   1.412       .  A
C1521      S1525   1.804       .  S
C1522      C1523   1.404       .  A
C1523      C1524   1.403       .  A
C1523      H1530   1.084       .  S
C1524      S1526   1.797       .  S
S1525      H1528   1.407       .  S
S1526      H1527   1.397       .  S
C1531      C1532   1.408       .  A
C1531      C1536   1.417       .  A
C1532      C1533   1.410       .  A
C1532      H1541   1.083       .  S
C1533      C1534   1.416       .  A
C1533      S1537   1.801       .  S
C1534      C1535   1.402       .  A
C1535      C1536   1.393       .  A
C1535      H1542   1.084       .  S
C1536      S1538   1.806       .  S
S1537      H1540   1.406       .  S
S1538      H1539   1.408       .  S
C1543      C1544   1.407       .  A
C1543      C1548   1.414       .  A
C1544      C1545   1.407       .  A
C1544      H1553   1.084       .  S
C1545      C1546   1.417       .  A
C1545      S1549   1.798       .  S
C1546      C1547   1.406       .  A
C1547      C1548   1.395       .  A
C1547      H1554   1.084       .  S
C1548      S1550   1.805       .  S
S1549      H1552   1.400       .  S
S1550      H1551   1.407       .  S
C1555      C1556   1.403       .  A
C1555      C1560   1.412       .  A
C1556      C1557   1.402       .  A
C1556      H1565   1.084       .  S
C1557      C1558   1.415       .  A
C1557      S1561   1.799       .  S
C1558      C1559   1.405       .  A
C1559      C1560   1.398       .  A
C1559      H1566   1.084       .  S
C1560      S1562   1.804       .  S
S1561      H1564   1.404       .  S
S1562      H1563   1.407       .  S
C1568      C1569   1.403       .  A
C1568      H1577   1.084       .  S
C1569      C1570   1.418       .  A
C1569      S1573   1.803       .  S
C1570      C1571   1.403       .  A
C1571      C1572   1.398       .  A
C1571      H1578   1.084       .  S
S1573      H1576   1.407       .  S
S1574      H1575   1.407       .  S
C1579      N1580   1.355       .  A
C1579      N1584   1.357       .  A
C1579      C1818   1.477       .  S
N1580      C1581   1.357       .  A
C1581      N1582   1.361       .  A
C1581      C1806   1.488       .  S
N1582      C1583   1.365       .  A
C1583      N1584   1.360       .  A
C1583      C1833   1.487       .  S
C1585      N1586   1.358       .  A
C1585      N1590   1.364       .  A
C1585      C1797   1.486       .  S
N1586      C1587   1.354       .  A
C1587      N1588   1.353       .  A
C1587      C1785   1.478       .  S
N1588      C1589   1.359       .  A
C1589      N1590   1.366       .  A
C1589      C1830   1.486       .  S
C1591      N1592   1.358       .  A
C1591      N1596   1.355       .  A
C1591      C1746   1.478   1_565  S
N1592      C1593   1.361       .  A
C1593      N1594   1.362       .  A
C1593      C1773   1.480       .  S
N1594      C1595   1.359       .  A
C1595      N1596   1.356       .  A
C1595      C1758   1.489       .  S
C1597      N1598   1.360       .  A
C1597      N1602   1.355       .  A
C1597      C1722   1.482       .  S
N1598      C1599   1.365       .  A
C1599      N1600   1.362       .  A
C1599      C1770   1.480       .  S
N1600      C1601   1.356       .  A
C1601      N1602   1.357       .  A
C1601      C1737   1.495       .  S
C1603      N1604   1.361       .  A
C1603      N1608   1.355       .  A
C1603      C1698   1.479       .  S
N1604      C1605   1.363       .  A
C1605      N1606   1.361       .  A
C1605      C1713   1.486       .  S
N1606      C1607   1.356       .  A
C1607      N1608   1.357       .  A
C1607      C1686   1.478       .  S
C1609      N1610   1.355       .  A
C1609      N1614   1.360       .  A
C1609      C1674   1.476       .  S
N1610      C1611   1.357       .  A
C1611      N1612   1.358       .  A
C1611      C1662   1.482       .  S
N1612      C1613   1.361       .  A
C1613      N1614   1.362       .  A
C1613      C1710   1.483       .  S
O1615     Mn1641   2.078       .  S
C1616      C1794   1.487       .  S
C1616      O1649   1.269       .  A
C1616      O1646   1.275       .  A
O1617     Mn1624   2.176       .  S
O1617     Mn1635   2.114       .  S
O1617     Mn1639   2.175       .  S
O1618     Mn1652   2.109       .  S
O1618      C1628   1.273       .  A
O1619     Mn1635   2.120       .  S
O1619      C1642   1.276       .  A
O1620     Mn1639   2.123       .  S
O1620      C1647   1.255       .  A
O1621     Mn1641   1.941       .  S
O1621      C1637   1.212       .  S
C1622      C1761   1.492       .  S
C1622      O1625   1.255       .  A
C1622      O1648   1.216       .  S
O1623     Mn1624   2.172       .  S
O1623     Mn1657   2.125       .  S
O1623     Mn1639   2.180       .  S
Mn1624     O1629   2.109       .  S
O1626     Mn1633   2.088       .  S
O1626      C1628   1.270       .  A
C1627      C1734   1.489       .  S
C1627      O1653   1.255       .  A
C1627      O1640   1.209       .  S
C1628      C1821   1.482       .  S
O1629      C1654   1.255       .  A
O1630     Mn1633   2.121       .  S
O1630     Mn1652   2.105       .  S
O1631     Mn1635   1.972       .  S
O1631     Mn1657   1.966       .  S
O1631      C1654   1.220       .  S
C1632      C1701   1.494       .  S
C1632      O1634   1.272       .  A
Mn1633     O1646   2.115       .  S
O1634     Mn1657   2.089       .  S
Mn1635     O1651   2.095       .  S
Mn1635     O1645   1.957       .  S
O1636     Mn1641   2.097       .  S
C1637      C1689   1.483       .  S
C1637      O1655   1.256       .  A
C1638      C1725   1.491       .  S
C1638      O1651   1.272       .  A
O1640     Mn1643   1.965       .  S
Mn1641     O1659   1.953       .  S
C1642      C1749   1.484       .  S
Mn1643     O1650   2.120       .  S
Mn1643     O1658   2.120       .  S
Mn1643     O1648   1.968       .  S
C1644      C1677   1.493       .  S
C1644      O1660   1.274       .  A
O1645     Mn1657   1.952       .  S
O1645      C1647   1.217       .  S
C1647      C1809   1.491       .  S
O1649     Mn1652   2.081       .  S
C1654      C1782   1.484       .  S
O1656      C1661   1.252       .  A
Mn1657     O1660   2.100       .  S
O1659      C1661   1.217       .  S
C1661      C1665   1.483       .  S
C1662      C1663   1.407       .  A
C1663      C1664   1.404       .  A
C1663      H1672   1.084       .  S
C1664      C1665   1.416       .  A
C1664      S1668   1.802       .  S
C1666      C1667   1.393       .  A
C1666      H1673   1.085       .  S
C1667      S1669   1.805       .  S
S1669      H1670   1.407       .  S
C1674      C1675   1.397       .  A
C1674      C1679   1.412       .  A
C1675      C1676   1.399       .  A
C1675      H1684   1.085   1_655  S
C1676      C1677   1.419       .  A
C1676      S1680   1.790   1_655  S
C1677      C1678   1.408       .  A
C1678      C1679   1.403       .  A
C1678      H1685   1.084       .  S
C1679      S1681   1.804       .  S
S1680      H1683   1.397       .  S
S1681      H1682   1.406       .  S
C1686      C1691   1.414       .  A
C1687      C1688   1.395       .  A
C1687      H1696   1.083       .  S
C1688      S1692   1.811       .  S
C1689      C1690   1.406       .  A
C1690      C1691   1.405       .  A
C1690      H1697   1.083       .  S
C1691      S1693   1.802       .  S
S1692      H1695   1.406       .  S
S1693      H1694   1.407       .  S
C1698      C1703   1.412       .  A
C1699      C1700   1.403       .  A
C1699      H1708   1.084       .  S
C1700      S1704   1.796       .  S
C1701      C1702   1.409       .  A
C1702      C1703   1.401       .  A
C1702      H1709   1.084       .  S
C1703      S1705   1.805       .  S
S1704      H1707   1.400       .  S
S1705      H1706   1.406       .  S
C1710      C1978   1.414       .  A
C1711      C1712   1.404       .  A
C1711      H1720   1.084       .  S
C1712      S1716   1.803       .  S
C1713      C1714   1.404       .  A
C1714      C1715   1.398       .  A
C1714      H1721   1.084       .  S
C1715      C1973   1.415   1_554  A
C1715      S1717   1.803   1_554  S
S1716      H1719   1.408       .  S
S1717      H1981   1.407       .  S
H1718      S1980   1.407       .  S
C1722      C1723   1.402       .  A
C1723      C1724   1.397       .  A
C1723      H1732   1.084       .  S
C1724      C1725   1.419       .  A
C1724      S1728   1.804       .  S
C1726      C1727   1.405       .  A
C1726      H1733   1.083       .  S
C1727      S1729   1.800       .  S
S1728      H1731   1.408       .  S
S1729      H1730   1.406       .  S
C1734      C1739   1.420       .  A
C1735      C1736   1.407       .  A
C1735      H1744   1.084       .  S
C1736      S1740   1.798       .  S
C1737      C1738   1.404       .  A
C1738      C1739   1.395       .  A
C1738      H1745   1.082       .  S
C1739      S1741   1.813       .  S
S1740      H1743   1.407       .  S
S1741      H1742   1.407       .  S
C1746      C1747   1.404   1_545  A
C1746      C1751   1.411       .  A
C1747      C1748   1.403       .  A
C1747      H1756   1.084       .  S
C1748      C1749   1.414       .  A
C1748      S1752   1.797       .  S
C1749      C1750   1.406   1_565  A
C1750      C1751   1.397       .  A
S1752      H1755   1.405       .  S
S1753      H1754   1.407       .  S
C1758      C1763   1.416       .  A
C1759      C1760   1.407       .  A
C1759      H1768   1.083       .  S
C1760      S1764   1.798       .  S
C1761      C1762   1.407       .  A
C1762      C1763   1.392       .  A
C1762      H1769   1.083       .  S
C1763      S1765   1.805       .  S
S1764      H1767   1.407       .  S
S1765      H1766   1.407       .  S
C1770      C2034   1.404       .  A
C1771      C2033   1.405   1_554  A
C1771      C1772   1.399       .  A
C1771      H2043   1.084       .  S
C1772      C1773   1.414       .  A
C1772      S1776   1.804       .  S
C1774      C1775   1.401       .  A
C1774      H1781   1.084       .  S
C1775      S1777   1.800   1_554  S
S1776      H1779   1.407       .  S
S1777      H2041   1.407       .  S
H1778      S2040   1.407       .  S
H1780      C2034   1.084       .  S
C1782      C1783   1.405       .  A
C1782      C1787   1.417       .  A
C1783      C1784   1.395       .  A
C1783      H1792   1.084       .  S
C1784      C1785   1.412       .  A
C1784      S1788   1.804       .  S
C1785      C1786   1.404       .  A
C1786      C1787   1.403       .  A
C1786      H1793   1.084       .  S
C1787      S1789   1.798       .  S
S1788      H1791   1.407       .  S
S1789      H1790   1.397       .  S
C1794      C1795   1.408       .  A
C1794      C1799   1.417       .  A
C1795      C1796   1.410       .  A
C1795      H1804   1.083       .  S
C1796      C1797   1.416       .  A
C1796      S1800   1.801       .  S
C1797      C1798   1.402       .  A
C1798      C1799   1.393       .  A
C1798      H1805   1.084       .  S
C1799      S1801   1.806       .  S
S1800      H1803   1.406       .  S
S1801      H1802   1.408       .  S
C1806      C1807   1.407       .  A
C1806      C1811   1.415       .  A
C1807      C1808   1.407       .  A
C1807      H1816   1.084       .  S
C1808      C1809   1.417       .  A
C1808      S1812   1.798       .  S
C1809      C1810   1.406       .  A
C1810      C1811   1.396       .  A
C1810      H1817   1.084       .  S
C1811      S1813   1.805       .  S
S1812      H1815   1.401       .  S
S1813      H1814   1.407       .  S
C1818      C1819   1.403       .  A
C1818      C1823   1.412       .  A
C1819      C1820   1.402       .  A
C1819      H1828   1.084       .  S
C1820      C1821   1.415       .  A
C1820      S1824   1.798       .  S
C1821      C1822   1.405       .  A
C1822      C1823   1.398       .  A
C1822      H1829   1.084       .  S
C1823      S1825   1.804       .  S
S1824      H1827   1.404       .  S
S1825      H1826   1.407       .  S
C1830      C2094   1.404       .  A
C1830      C2098   1.418       .  A
C1831      C2093   1.404   1_554  A
C1831      C1832   1.404       .  A
C1831      H1840   1.084       .  S
C1832      C1833   1.419       .  A
C1832      S1836   1.803       .  S
C1833      C1834   1.403       .  A
C1834      C1835   1.398       .  A
C1834      H1841   1.084       .  S
C1835      C2093   1.418   1_554  A
C1835      S2100   1.805   1_554  S
S1836      H1839   1.407       .  S
S1837      C2098   1.805       .  S
S1837      H1838   1.407       .  S
C1842      N1843   1.356       .  A
C1842      N1847   1.357       .  A
C1842      C2081   1.477       .  S
N1843      C1844   1.357       .  A
C1844      N1845   1.361       .  A
C1844      C2069   1.487       .  S
N1845      C1846   1.364       .  A
C1846      N1847   1.360       .  A
C1846      C2096   1.486       .  S
C1848      N1849   1.358       .  A
C1848      N1853   1.364       .  A
C1848      C2060   1.486       .  S
N1849      C1850   1.354       .  A
C1850      N1851   1.354       .  A
C1850      C2048   1.478       .  S
N1851      C1852   1.360       .  A
C1852      N1853   1.367       .  A
C1852      C2093   1.486       .  S
C1854      N1855   1.358       .  A
C1854      N1859   1.355       .  A
C1854      C2009   1.478   1_565  S
N1855      C1856   1.361       .  A
C1856      N1857   1.362       .  A
C1856      C2036   1.480       .  S
N1857      C1858   1.359       .  A
C1858      N1859   1.356       .  A
C1858      C2021   1.490       .  S
C1860      N1861   1.361       .  A
C1860      N1865   1.355       .  A
C1860      C1985   1.482       .  S
N1861      C1862   1.365       .  A
C1862      N1863   1.362       .  A
C1862      C2033   1.481       .  S
N1863      C1864   1.356       .  A
C1864      N1865   1.357       .  A
C1864      C2000   1.495       .  S
C1866      N1867   1.361       .  A
C1866      N1871   1.355       .  A
C1866      C1961   1.479       .  S
N1867      C1868   1.363       .  A
C1868      N1869   1.361       .  A
C1868      C1976   1.485       .  S
N1869      C1870   1.356       .  A
C1870      N1871   1.357       .  A
C1870      C1949   1.478       .  S
C1872      N1873   1.355       .  A
C1872      N1877   1.360       .  A
C1872      C1937   1.476       .  S
N1873      C1874   1.357       .  A
C1874      N1875   1.358       .  A
C1874      C1925   1.482       .  S
N1875      C1876   1.361       .  A
C1876      N1877   1.362       .  A
C1876      C1973   1.483       .  S
O1878     Mn1904   2.078       .  S
C1879      C2057   1.487       .  S
C1879      O1912   1.270       .  A
C1879      O1909   1.275       .  A
O1880     Mn1887   2.177       .  S
O1880     Mn1898   2.114       .  S
O1880     Mn1902   2.175       .  S
O1881     Mn1915   2.109       .  S
O1881      C1891   1.273       .  A
O1882     Mn1898   2.120       .  S
O1882      C1905   1.276       .  A
O1883     Mn1902   2.123       .  S
O1883      C1910   1.255       .  A
O1884     Mn1904   1.942       .  S
O1884      C1900   1.212       .  S
C1885      C2024   1.492       .  S
C1885      O1888   1.255       .  A
C1885      O1911   1.216       .  S
O1886     Mn1887   2.172       .  S
O1886     Mn1920   2.125       .  S
O1886     Mn1902   2.180       .  S
Mn1887     O1892   2.109       .  S
O1889     Mn1896   2.088       .  S
O1889      C1891   1.270       .  A
C1890      C1997   1.489       .  S
C1890      O1916   1.255       .  A
C1890      O1903   1.209       .  S
C1891      C2084   1.481       .  S
O1892      C1917   1.255       .  A
O1893     Mn1896   2.121       .  S
O1893     Mn1915   2.105       .  S
O1894     Mn1898   1.972       .  S
O1894     Mn1920   1.966       .  S
O1894      C1917   1.220       .  S
C1895      C1964   1.494       .  S
C1895      O1897   1.272       .  A
Mn1896     O1909   2.114       .  S
O1897     Mn1920   2.089       .  S
Mn1898     O1914   2.095       .  S
Mn1898     O1908   1.957       .  S
O1899     Mn1904   2.098       .  S
C1900      C1952   1.483       .  S
C1900      O1918   1.256       .  A
C1901      C1988   1.492       .  S
C1901      O1914   1.272       .  A
O1903     Mn1906   1.965       .  S
Mn1904     O1922   1.953       .  S
C1905      C2012   1.483       .  S
Mn1906     O1913   2.120       .  S
Mn1906     O1921   2.120       .  S
Mn1906     O1911   1.968       .  S
C1907      C1940   1.493       .  S
C1907      O1923   1.274       .  A
O1908     Mn1920   1.952       .  S
O1908      C1910   1.217       .  S
C1910      C2072   1.491       .  S
O1912     Mn1915   2.081       .  S
C1917      C2045   1.484       .  S
O1919      C1924   1.252       .  A
Mn1920     O1923   2.099       .  S
O1922      C1924   1.217       .  S
C1924      C1928   1.482       .  S
C1925      C1926   1.407       .  A
C1926      C1927   1.404       .  A
C1926      H1935   1.084       .  S
C1927      C1928   1.416       .  A
C1927      S1931   1.802       .  S
C1929      C1930   1.393       .  A
C1929      H1936   1.085       .  S
C1930      S1932   1.805       .  S
S1932      H1933   1.407       .  S
C1937      C1938   1.397       .  A
C1937      C1942   1.412       .  A
C1938      C1939   1.400       .  A
C1938      H1947   1.085   1_655  S
C1939      C1940   1.419       .  A
C1939      S1943   1.791   1_655  S
C1940      C1941   1.408       .  A
C1941      C1942   1.403       .  A
C1941      H1948   1.084       .  S
C1942      S1944   1.804       .  S
S1943      H1946   1.397       .  S
S1944      H1945   1.406       .  S
C1949      C1954   1.414       .  A
C1950      C1951   1.395       .  A
C1950      H1959   1.083       .  S
C1951      S1955   1.811       .  S
C1952      C1953   1.406       .  A
C1953      C1954   1.405       .  A
C1953      H1960   1.083       .  S
C1954      S1956   1.803       .  S
S1955      H1958   1.406       .  S
S1956      H1957   1.407       .  S
C1961      C1966   1.412       .  A
C1962      C1963   1.403       .  A
C1962      H1971   1.084       .  S
C1963      S1967   1.796       .  S
C1964      C1965   1.409       .  A
C1965      C1966   1.401       .  A
C1965      H1972   1.084       .  S
C1966      S1968   1.805       .  S
S1967      H1970   1.399       .  S
S1968      H1969   1.406       .  S
C1974      C1975   1.404       .  A
C1974      H1983   1.084       .  S
C1975      S1979   1.803       .  S
C1976      C1977   1.404       .  A
C1977      C1978   1.398       .  A
C1977      H1984   1.084       .  S
C1978      S1980   1.802       .  S
S1979      H1982   1.407       .  S
C1985      C1986   1.402       .  A
C1986      C1987   1.397       .  A
C1986      H1995   1.084       .  S
C1987      C1988   1.419       .  A
C1987      S1991   1.804       .  S
C1989      C1990   1.405       .  A
C1989      H1996   1.083       .  S
C1990      S1992   1.801       .  S
S1991      H1994   1.408       .  S
S1992      H1993   1.406       .  S
C1997      C2002   1.420       .  A
C1998      C1999   1.406       .  A
C1998      H2007   1.084       .  S
C1999      S2003   1.798       .  S
C2000      C2001   1.404       .  A
C2001      C2002   1.395       .  A
C2001      H2008   1.082       .  S
C2002      S2004   1.813       .  S
S2003      H2006   1.407       .  S
S2004      H2005   1.407       .  S
C2009      C2010   1.404   1_545  A
C2009      C2014   1.411       .  A
C2010      C2011   1.403       .  A
C2010      H2019   1.084       .  S
C2011      C2012   1.414       .  A
C2011      S2015   1.797       .  S
C2012      C2013   1.406   1_565  A
C2013      C2014   1.397       .  A
S2015      H2018   1.405       .  S
S2016      H2017   1.407       .  S
C2021      C2026   1.416       .  A
C2022      C2023   1.407       .  A
C2022      H2031   1.083       .  S
C2023      S2027   1.798       .  S
C2024      C2025   1.407       .  A
C2025      C2026   1.392       .  A
C2025      H2032   1.083       .  S
C2026      S2028   1.805       .  S
S2027      H2030   1.407       .  S
S2028      H2029   1.407       .  S
C2034      C2035   1.399       .  A
C2035      C2036   1.414       .  A
C2035      S2039   1.804       .  S
C2037      C2038   1.401       .  A
C2037      H2044   1.084       .  S
C2038      S2040   1.800       .  S
S2039      H2042   1.407       .  S
C2045      C2046   1.405       .  A
C2045      C2050   1.417       .  A
C2046      C2047   1.395       .  A
C2046      H2055   1.084       .  S
C2047      C2048   1.412       .  A
C2047      S2051   1.804       .  S
C2048      C2049   1.404       .  A
C2049      C2050   1.403       .  A
C2049      H2056   1.084       .  S
C2050      S2052   1.797       .  S
S2051      H2054   1.407       .  S
S2052      H2053   1.397       .  S
C2057      C2058   1.408       .  A
C2057      C2062   1.417       .  A
C2058      C2059   1.410       .  A
C2058      H2067   1.084       .  S
C2059      C2060   1.416       .  A
C2059      S2063   1.801       .  S
C2060      C2061   1.402       .  A
C2061      C2062   1.393       .  A
C2061      H2068   1.084       .  S
C2062      S2064   1.806       .  S
S2063      H2066   1.406       .  S
S2064      H2065   1.408       .  S
C2069      C2070   1.407       .  A
C2069      C2074   1.414       .  A
C2070      C2071   1.407       .  A
C2070      H2079   1.084       .  S
C2071      C2072   1.417       .  A
C2071      S2075   1.798       .  S
C2072      C2073   1.406       .  A
C2073      C2074   1.396       .  A
C2073      H2080   1.084       .  S
C2074      S2076   1.805       .  S
S2075      H2078   1.400       .  S
S2076      H2077   1.407       .  S
C2081      C2082   1.403       .  A
C2081      C2086   1.412       .  A
C2082      C2083   1.401       .  A
C2082      H2091   1.084       .  S
C2083      C2084   1.414       .  A
C2083      S2087   1.798       .  S
C2084      C2085   1.405       .  A
C2085      C2086   1.398       .  A
C2085      H2092   1.084       .  S
C2086      S2088   1.804       .  S
S2087      H2090   1.404       .  S
S2088      H2089   1.407       .  S
C2094      C2095   1.404       .  A
C2094      H2103   1.084       .  S
C2095      C2096   1.418       .  A
C2095      S2099   1.803       .  S
C2096      C2097   1.403       .  A
C2097      C2098   1.398       .  A
C2097      H2104   1.084       .  S
S2099      H2102   1.407       .  S
S2100      H2101   1.407       .  S
