geometry optimzed in LAMMPS
_audit_creation_date              2020-11-30 
_audit_creation_method            'lammps2cif' 
_symmetry_space_group_name_H-M    'P1' 
_symmetry_Int_Tables_number       1 
_symmetry_cell_setting            triclinic 
loop_ 
_symmetry_equiv_pos_as_xyz 
  x,y,z 
_cell_length_a                    72.27833423 
_cell_length_b                    72.6503085042596 
_cell_length_c                    72.19087467773033 
_cell_angle_alpha                 89.85053897139862 
_cell_angle_beta                  89.65806088523384 
_cell_angle_gamma                 89.94852072272367 
loop_ 
_atom_site_label 
_atom_site_type_symbol 
_atom_site_fract_x 
_atom_site_fract_y 
_atom_site_fract_z 
_atom_site_charge 
C1          C  0.40894916  0.58790092  0.59188306    -0.02700
C2          C  0.57590730  0.42241556  0.59495503    -0.02700
C3          C  0.57246595  0.59441291  0.43058063    -0.02700
C4          C  0.40962662  0.41366365  0.42364681    -0.02700
C5          C  0.49057789  0.50081546  0.50674342    -0.02700
C6          C  0.91522363  0.09177095  0.09154179    -0.02700
C7          C  0.90828616  0.92285589  0.92357235    -0.02700
C8          C  0.08081860  0.91910657  0.08812903    -0.02700
C9          C  0.07654372  0.09150874  0.92112657    -0.02700
C10         C  0.99539519  0.00470614  0.00630097    -0.02700
In11       In  0.95851743  0.22959932  0.37539035     1.36900
C12         C  0.99085372  0.24234513  0.38818632     0.77400
O13         O  0.96307601  0.23966567  0.34661209    -0.61100
O14         O  0.94380549  0.25398206  0.36383592    -0.52000
C15         C  0.95377744  0.19793474  0.35691309     0.70100
O16         O  0.96924257  0.20291495  0.36312607    -0.46800
C17         C  0.93695081  0.23389960  0.40514473     0.74800
O18         O  0.98431037  0.22691118  0.39284539    -0.58700
O19         O  0.93404461  0.24165238  0.38984060    -0.48800
O20         O  0.98120928  0.25079245  0.37650117    -0.55100
C21         C  0.95172983  0.25279989  0.34826293     0.84900
O22         O  0.94058902  0.20824866  0.36169698    -0.57000
O23         O  0.95017147  0.22255006  0.40482741    -0.60300
In24       In  0.20726969  0.96795311  0.37647564     1.36900
C25         C  0.21550758  0.00005513  0.39166096     0.77400
O26         O  0.20013321  0.95264059  0.40287473    -0.61100
O27         O  0.22767858  0.95181495  0.39262523    -0.52000
C28         C  0.17666960  0.96171715  0.35720971     0.70100
O29         O  0.18068158  0.97746122  0.36331817    -0.46800
C30         C  0.22847539  0.96405424  0.34701844     0.74800
O31         O  0.20047269  0.99192867  0.39547984    -0.58700
O32         O  0.22509286  0.95087631  0.35796287    -0.48800
O33         O  0.22535268  0.99197656  0.37977997    -0.55100
C34         C  0.21656274  0.94721106  0.40528543     0.84900
O35         O  0.18712151  0.94908221  0.36293612    -0.57000
O36         O  0.22127937  0.97924589  0.35146766    -0.60300
In37       In  0.02741720  0.79456679  0.37089012     1.36900
C38         C  0.99508089  0.78065210  0.38252790     0.77400
O39         O  0.01827118  0.78459812  0.34334507    -0.61100
O40         O  0.04465271  0.77616470  0.35329071    -0.52000
C41         C  0.03458639  0.82640692  0.35353010     0.70100
O42         O  0.01903287  0.82321632  0.36096473    -0.46800
C43         C  0.04721396  0.78620355  0.40101139     0.74800
O44         O  0.99987196  0.79696588  0.38634258    -0.58700
O45         O  0.04696454  0.77660361  0.38654904    -0.48800
O46         O  0.00644479  0.77226437  0.37240234    -0.55100
C47         C  0.03274860  0.77521022  0.34056857     0.84900
O48         O  0.04671139  0.81448265  0.35706057    -0.57000
O49         O  0.03805741  0.80097145  0.39971585    -0.60300
In50       In  0.78842862  0.04984595  0.37006641     1.36900
C51         C  0.77653398  0.01964739  0.38753719     0.77400
O52         O  0.79626129  0.05880289  0.39884249    -0.61100
O53         O  0.77808456  0.07577303  0.38358488    -0.52000
C54         C  0.81937886  0.05531611  0.35001437     0.70100
O55         O  0.81554470  0.04010775  0.35759669    -0.46800
C56         C  0.76483795  0.04860104  0.34206794     0.74800
O57         O  0.79357984  0.02289167  0.38505568    -0.58700
O58         O  0.76517063  0.06179923  0.35342052    -0.48800
O59         O  0.76595567  0.03192535  0.38123110    -0.55100
C60         C  0.78595348  0.07282513  0.39885859     0.84900
O61         O  0.80813839  0.06796620  0.35401405    -0.57000
O62         O  0.77674270  0.03628635  0.34506148    -0.60300
C63         C  0.95862196  0.06680101  0.25128704     0.86300
C64         C  0.96125521  0.08516747  0.26152339    -0.53900
C65         C  0.94626939  0.09677939  0.26101433     0.09200
C66         C  0.92995630  0.08900730  0.24960780     0.20200
C67         C  0.94062394  0.05872201  0.25932084    -0.54700
C68         C  0.92579659  0.07042134  0.25926615     0.09300
C69         C  0.95325068  0.07249345  0.23156349    -0.54200
C70         C  0.93830891  0.08383882  0.23042344     0.09900
H71         H  0.97356308  0.08818015  0.26951786     0.14400
H72         H  0.91783395  0.09835090  0.24874008     0.00100
H73         H  0.94003424  0.04520377  0.26575732     0.14700
H74         H  0.95978977  0.06760282  0.21901679     0.14500
C75         C  0.05157800  0.96158734  0.25265803     0.86300
C76         C  0.04526433  0.94393673  0.26268661    -0.53900
C77         C  0.05615691  0.92874294  0.25977599     0.09200
C78         C  0.07255068  0.93279028  0.24648134     0.20200
C79         C  0.07180226  0.96405616  0.25854535    -0.54700
C80         C  0.08271694  0.94885035  0.25621734     0.09300
C81         C  0.05321777  0.95641662  0.23230415    -0.54200
C82         C  0.06375902  0.94123814  0.22858973     0.09900
H83         H  0.03364674  0.94394509  0.27229238     0.14400
H84         H  0.08142279  0.92070028  0.24364966     0.00100
H85         H  0.07685726  0.97557823  0.26649034     0.14700
H86         H  0.04664506  0.96458489  0.22157736     0.14500
In87       In  0.34990284  0.96040136  0.22186832     1.36900
C88         C  0.36442220  0.99329669  0.23046519     0.77400
O89         O  0.32170613  0.96944503  0.23059834    -0.61100
O90         O  0.33539721  0.94901124  0.24661071    -0.52000
C91         C  0.33240223  0.95421018  0.18983124     0.70100
O92         O  0.34177196  0.96850100  0.19269354    -0.46800
C93         C  0.37738475  0.93695423  0.23037527     0.74800
O94         O  0.35115243  0.98612858  0.23917149    -0.58700
O95         O  0.36173543  0.93659829  0.23806944    -0.48800
O96         O  0.37016671  0.98371436  0.21708430    -0.55100
C97         C  0.32099790  0.95859822  0.24428756     0.84900
O98         O  0.33365814  0.94236335  0.20249527    -0.57000
O99         O  0.37857262  0.94860000  0.21744628    -0.60300
In100      In  0.35958361  0.21354201  0.96854280     1.36900
C101        C  0.37864268  0.22565073  0.99762975     0.77400
O102        O  0.38761939  0.20522874  0.95765050    -0.61100
O103        O  0.37119902  0.22375734  0.94195083    -0.52000
C104        C  0.33804452  0.18354778  0.96774167     0.70100
O105        O  0.35176010  0.18552590  0.95705027    -0.46800
C106        C  0.33366340  0.23879091  0.96323118     0.74800
O107        O  0.37243877  0.20935248  0.99698429    -0.58700
O108        O  0.34062608  0.22964832  0.95010801    -0.48800
O109        O  0.37531011  0.23503755  0.98339245    -0.55100
C110        C  0.38662980  0.21585317  0.94376858     0.84900
O111        O  0.33689518  0.19568277  0.98008769    -0.57000
O112        O  0.34004930  0.23485982  0.97894600    -0.60300
In113      In  0.36749871  0.04897256  0.78725258     1.36900
C114        C  0.38029330  0.01512964  0.78128361     0.77400
O115        O  0.35616249  0.04657525  0.75880653    -0.61100
O116        O  0.34375831  0.06598356  0.77702008    -0.52000
C117        C  0.34626880  0.04960656  0.81801243     0.70100
O118        O  0.34814822  0.03573451  0.80780507    -0.46800
C119        C  0.39633240  0.07087886  0.77930988     0.74800
O120        O  0.38990245  0.02733986  0.78907946    -0.58700
O121        O  0.38240873  0.06898294  0.76916775    -0.48800
O122        O  0.36404699  0.02005335  0.77752660    -0.55100
C123        C  0.34381756  0.05859588  0.76122165     0.84900
O124        O  0.35690052  0.06274260  0.81363085    -0.57000
O125        O  0.39508615  0.06234891  0.79460153    -0.60300
In126      In  0.36050459  0.78286373  0.04659202     1.36900
C127        C  0.37625038  0.77057423  0.01528411     0.77400
O128        O  0.38942445  0.78976616  0.05611729    -0.61100
O129        O  0.37435591  0.76925651  0.07067082    -0.52000
C130        C  0.34126125  0.81444627  0.05012203     0.70100
O131        O  0.34503567  0.80732457  0.03464556    -0.46800
C132        C  0.33174024  0.76081532  0.05104557     0.74800
O133        O  0.37433566  0.78759950  0.01863413    -0.58700
O134        O  0.34041823  0.76740905  0.06456270    -0.48800
O135        O  0.37038270  0.76025802  0.02809702    -0.55100
C136        C  0.38940351  0.77778558  0.06884753     0.84900
O137        O  0.34902667  0.80646020  0.06346338    -0.57000
O138        O  0.33785170  0.76557420  0.03539064    -0.60300
C139        C  0.24563180  0.95169383  0.04642661     0.86300
C140        C  0.25313080  0.95612986  0.06581691    -0.53900
C141        C  0.24902278  0.94335210  0.07920052     0.09200
C142        C  0.23739383  0.92716042  0.07178453     0.20200
C143        C  0.25323694  0.93241340  0.04223513    -0.54700
C144        C  0.24966523  0.91960814  0.05571233     0.09300
C145        C  0.22502311  0.94849495  0.04897769    -0.54200
C146        C  0.22014311  0.93637925  0.06257254     0.09900
H147        H  0.26187836  0.96798718  0.06839525     0.14400
H148        H  0.23388089  0.91685469  0.08254484     0.00100
H149        H  0.26254880  0.92924771  0.03089620     0.14700
H150        H  0.21499497  0.95564965  0.04043067     0.14500
C151        C  0.23662350  0.05131068  0.94837750     0.86300
C152        C  0.21683896  0.05600539  0.94232222    -0.53900
C153        C  0.21573695  0.06953413  0.92928371     0.09200
C154        C  0.23489390  0.07734510  0.92322005     0.20200
C155        C  0.24688809  0.04680978  0.93034746    -0.54700
C156        C  0.24656546  0.06039793  0.91731375     0.09300
C157        C  0.24451358  0.06993048  0.95458717    -0.54200
C158        C  0.24420818  0.08360757  0.94146950     0.09900
H159        H  0.20436019  0.05002003  0.94806471     0.14400
H160        H  0.23377777  0.08818257  0.91245169     0.00100
H161        H  0.25530067  0.03450448  0.92870642     0.14700
H162        H  0.25104561  0.07162096  0.96797364     0.14500
In163      In  0.95732206  0.37484344  0.22467821     1.36900
C164        C  0.98868459  0.38986446  0.23699549     0.77400
O165        O  0.94891195  0.40417284  0.21867824    -0.61100
O166        O  0.93173010  0.38779080  0.23597738    -0.52000
C167        C  0.95195871  0.35616362  0.19313130     0.70100
O168        O  0.96776942  0.36004176  0.19923251    -0.46800
C169        C  0.95343121  0.34692506  0.24782378     0.74800
O170        O  0.98427681  0.39033071  0.22005925    -0.58700
O171        O  0.94216522  0.36016311  0.24720312    -0.48800
O172        O  0.97702366  0.38188715  0.24722267    -0.55100
C173        C  0.93473045  0.40339873  0.22898776     0.84900
O174        O  0.93897625  0.36338440  0.20226920    -0.57000
O175        O  0.96660790  0.34800738  0.23636257    -0.60300
In176      In  0.21292340  0.36446364  0.96536745     1.36900
C177        C  0.22420195  0.37754426  0.99831070     0.77400
O178        O  0.23668287  0.35082679  0.95102168    -0.61100
O179        O  0.22299683  0.33653089  0.97290302    -0.52000
C180        C  0.18142626  0.34574685  0.95901324     0.70100
O181        O  0.18523158  0.35283289  0.97445366    -0.46800
C182        C  0.21815505  0.39393383  0.94363062     0.74800
O183        O  0.23342563  0.36648992  0.98860288    -0.58700
O184        O  0.22724042  0.37923690  0.94212082    -0.48800
O185        O  0.20882083  0.38185152  0.99131903    -0.55100
C186        C  0.23563695  0.33637145  0.96074754     0.84900
O187        O  0.19292418  0.34969475  0.94645410    -0.57000
O188        O  0.20546854  0.39324658  0.95570080    -0.60300
In189      In  0.02959016  0.37077510  0.79157331     1.36900
C190        C  0.99810478  0.38637507  0.78030626     0.77400
O191        O  0.05120163  0.38540961  0.77514002    -0.61100
O192        O  0.04154945  0.39853861  0.79947455    -0.52000
C193        C  0.03349200  0.35180230  0.82329630     0.70100
O194        O  0.01797980  0.35631064  0.81681798    -0.46800
C195        C  0.03374678  0.34197316  0.76963252     0.74800
O196        O  0.00963927  0.37882092  0.76962202    -0.58700
O197        O  0.04717699  0.35195860  0.77434340    -0.48800
O198        O  0.00274438  0.38612304  0.79718358    -0.55100
C199        C  0.05189930  0.39941069  0.78530926     0.84900
O200        O  0.04697418  0.35845913  0.81440234    -0.57000
O201        O  0.01839595  0.34663614  0.77651990    -0.60300
In202      In  0.76902332  0.36497178  0.06395736     1.36900
C203        C  0.75946272  0.37924479  0.03078887     0.77400
O204        O  0.76002392  0.33687761  0.05565948    -0.61100
O205        O  0.74685951  0.34955069  0.07882811    -0.52000
C206        C  0.80157486  0.34880339  0.07100407     0.70100
O207        O  0.79825753  0.35721107  0.05609495    -0.46800
C208        C  0.76033735  0.39282490  0.08622675     0.74800
O209        O  0.77402390  0.38370957  0.03916527    -0.58700
O210        O  0.75031876  0.37891978  0.08395535    -0.48800
O211        O  0.75024114  0.36708973  0.03913888    -0.55100
C212        C  0.74787328  0.33574283  0.06831452     0.84900
O213        O  0.78868082  0.34982586  0.08272713    -0.57000
O214        O  0.77563800  0.39209429  0.07777153    -0.60300
C215        C  0.94118701  0.25365492  0.06048293     0.86300
C216        C  0.92228755  0.26313722  0.05703225    -0.53900
C217        C  0.90973443  0.26109353  0.07121113     0.09200
C218        C  0.91727532  0.24971574  0.08759880     0.20200
C219        C  0.94747684  0.26182542  0.07888077    -0.54700
C220        C  0.93491971  0.26058801  0.09302732     0.09300
C221        C  0.93636736  0.23372261  0.06476382    -0.54200
C222        C  0.92387295  0.23129332  0.07868599     0.09900
H223        H  0.91931542  0.27215157  0.04548452     0.14400
H224        H  0.90715012  0.24787154  0.09907551     0.00100
H225        H  0.96001261  0.27000709  0.07991757     0.14700
H226        H  0.94207378  0.22226676  0.05692368     0.14500
C227        C  0.04152938  0.25188694  0.96050378     0.86300
C228        C  0.04583693  0.23194065  0.95577298    -0.53900
C229        C  0.05769988  0.22956535  0.94129825     0.09200
C230        C  0.06432433  0.24795952  0.93239365     0.20200
C231        C  0.06082167  0.26075943  0.96340251    -0.54700
C232        C  0.07273468  0.25889102  0.94864179     0.09300
C233        C  0.03471838  0.26057211  0.94243738    -0.54200
C234        C  0.04658849  0.25905736  0.92772996     0.09900
H235        H  0.04021661  0.22043395  0.96364679     0.14400
H236        H  0.07400191  0.24607165  0.92056100     0.00100
H237        H  0.06476498  0.26871941  0.97537807     0.14700
H238        H  0.02211779  0.26872098  0.94182499     0.14500
In239      In  0.69789539  0.54375938  0.14855401     1.36900
C240        C  0.70680438  0.50963585  0.13819622     0.77400
O241        O  0.70774517  0.56984007  0.13509383    -0.61100
O242        O  0.69339644  0.55081628  0.11842583    -0.52000
C243        C  0.66723996  0.54453397  0.16948856     0.70100
O244        O  0.66942948  0.55498163  0.15565816    -0.46800
C245        C  0.72384411  0.55513590  0.17140126     0.74800
O246        O  0.69311206  0.51809904  0.13149791    -0.58700
O247        O  0.70697540  0.55898398  0.17369483    -0.48800
O248        O  0.71512765  0.51840084  0.15061358    -0.55100
C249        C  0.70240274  0.56564906  0.11911960     0.84900
O250        O  0.67987303  0.53275700  0.17133584    -0.57000
O251        O  0.72737409  0.54604868  0.15692062    -0.60300
In252      In  0.46229907  0.28359573  0.14001694     1.36900
C253        C  0.49401697  0.27216568  0.12473378     0.77400
O254        O  0.47018968  0.26374567  0.16188255    -0.61100
O255        O  0.44156558  0.26744067  0.15654850    -0.52000
C256        C  0.46045923  0.31461967  0.16022550     0.70100
O257        O  0.47220101  0.30212941  0.16281210    -0.46800
C258        C  0.44103582  0.27873641  0.11043817     0.74800
O259        O  0.49017950  0.28907205  0.12656367    -0.58700
O260        O  0.43637222  0.27350749  0.12645265    -0.48800
O261        O  0.48168446  0.26149571  0.13087413    -0.55100
C262        C  0.45380327  0.25920059  0.16580096     0.84900
O263        O  0.45056018  0.31200868  0.14615409    -0.57000
O264        O  0.45585681  0.28791768  0.10986491    -0.60300
In265      In  0.53656865  0.71802294  0.14471874     1.36900
C266        C  0.50416646  0.72984120  0.13130252     0.77400
O267        O  0.52599073  0.72899305  0.17129362    -0.61100
O268        O  0.55342243  0.73608771  0.16313285    -0.52000
C269        C  0.54097092  0.68615002  0.16313917     0.70100
O270        O  0.52573199  0.69155282  0.15670947    -0.46800
C271        C  0.55709177  0.72542527  0.11460897     0.74800
O272        O  0.50989153  0.71353416  0.12915922    -0.58700
O273        O  0.55703384  0.73522619  0.12897201    -0.48800
O274        O  0.51507385  0.73988684  0.14030877    -0.55100
C275        C  0.54071891  0.73737833  0.17515882     0.84900
O276        O  0.55449679  0.69594661  0.15805470    -0.57000
O277        O  0.54769585  0.71083361  0.11618534    -0.60300
In278      In  0.27926287  0.45825759  0.14441821     1.36900
C279        C  0.26829339  0.48993292  0.12932559     0.77400
O280        O  0.28553430  0.44928026  0.11503673    -0.61100
O281        O  0.26464693  0.43520083  0.12993361    -0.52000
C282        C  0.31094029  0.44920122  0.16121475     0.70100
O283        O  0.30828406  0.46488096  0.15412511    -0.46800
C284        C  0.25789532  0.45954453  0.17446827     0.74800
O285        O  0.28523514  0.48616555  0.13164527    -0.58700
O286        O  0.25778443  0.44610182  0.16342675    -0.48800
O287        O  0.25742627  0.47751303  0.13483138    -0.55100
C288        C  0.27299245  0.43720380  0.11467994     0.84900
O289        O  0.29807329  0.43796811  0.15819540    -0.57000
O290        O  0.26945968  0.47191584  0.17042493    -0.60300
C291        C  0.44251331  0.44932189  0.26265397     0.86300
C292        C  0.45145960  0.43218402  0.25392636    -0.53900
C293        C  0.44077527  0.41657308  0.25441061     0.09200
C294        C  0.42220382  0.41951158  0.26489685     0.20200
C295        C  0.42359192  0.45082937  0.25300202    -0.54700
C296        C  0.41314462  0.43525251  0.25386519     0.09300
C297        C  0.43766222  0.44369566  0.28242217    -0.54200
C298        C  0.42734143  0.42814055  0.28391139     0.09900
H299        H  0.46468417  0.43287223  0.24674811     0.14400
H300        H  0.41318677  0.40723031  0.26593645     0.00100
H301        H  0.41892149  0.46230247  0.24471141     0.14700
H302        H  0.44209816  0.45144651  0.29446475     0.14500
C303        C  0.53195496  0.55638093  0.26947401     0.86300
C304        C  0.53594975  0.56116779  0.28968760    -0.53900
C305        C  0.55023191  0.57303073  0.29225860     0.09200
C306        C  0.55937499  0.57949629  0.27382481     0.20200
C307        C  0.52913910  0.57489425  0.25972894    -0.54700
C308        C  0.54353375  0.58691332  0.26151188     0.09300
C309        C  0.55077307  0.54931303  0.26224759    -0.54200
C310        C  0.56513754  0.56145942  0.26402874     0.09900
H311        H  0.52910426  0.55480863  0.30144142     0.14400
H312        H  0.57090994  0.58936167  0.27578452     0.00100
H313        H  0.51754928  0.57757195  0.25059298     0.14700
H314        H  0.55221842  0.53632391  0.25503755     0.14500
In315      In  0.54630683  0.14045943  0.71448085     1.36900
C316        C  0.51446220  0.12674936  0.72792290     0.77400
O317        O  0.56736715  0.12500437  0.73052184    -0.61100
O318        O  0.55657688  0.11186033  0.70674925    -0.52000
C319        C  0.54679776  0.16096969  0.68346309     0.70100
O320        O  0.55850358  0.14835257  0.68618948    -0.46800
C321        C  0.55883173  0.16695374  0.73589784     0.74800
O322        O  0.52004379  0.12341093  0.71164613    -0.58700
O323        O  0.56938678  0.15469584  0.72937473    -0.48800
O324        O  0.52499501  0.13720871  0.73681038    -0.55100
C325        C  0.56690911  0.11064630  0.72082369     0.84900
O326        O  0.53409231  0.16151219  0.69538555    -0.57000
O327        O  0.54210310  0.16566502  0.73123711    -0.60300
In328      In  0.45734244  0.13223875  0.28244754     1.36900
C329        C  0.49022740  0.11734498  0.27444741     0.77400
O330        O  0.44590870  0.10370323  0.28873202    -0.61100
O331        O  0.43357425  0.11946302  0.26760658    -0.52000
C332        C  0.45702589  0.15403936  0.31239643     0.70100
O333        O  0.46918405  0.15477035  0.29988473    -0.46800
C334        C  0.44960418  0.15740737  0.25733255     0.74800
O335        O  0.48360979  0.11727835  0.29070690    -0.58700
O336        O  0.43863248  0.15398904  0.27058821    -0.48800
O337        O  0.47991379  0.12488893  0.26269248    -0.55100
C338        C  0.43404475  0.10430962  0.27598215     0.84900
O339        O  0.44573667  0.14093059  0.31050680    -0.57000
O340        O  0.46442693  0.14828765  0.25747103    -0.60300
In341      In  0.71876765  0.14855741  0.54309260     1.36900
C342        C  0.73351324  0.13550813  0.51158520     0.77400
O343        O  0.72815800  0.17710890  0.53727388    -0.61100
O344        O  0.73928067  0.16300946  0.56060310    -0.52000
C345        C  0.68583813  0.16536037  0.54620188     0.70100
O346        O  0.69319141  0.16141129  0.53085959    -0.46800
C347        C  0.72532726  0.12073345  0.56616098     0.74800
O348        O  0.71838745  0.12963957  0.51815063    -0.58700
O349        O  0.73388122  0.13578294  0.56650736    -0.48800
O350        O  0.74065287  0.14813378  0.52097133    -0.55100
C351        C  0.73896054  0.17746145  0.55093267     0.84900
O352        O  0.69420514  0.15872611  0.55994153    -0.57000
O353        O  0.71260487  0.12006132  0.55420543    -0.60300
In354      In  0.27504094  0.14510903  0.46811195     1.36900
C355        C  0.26265242  0.13219694  0.50049519     0.77400
O356        O  0.26634060  0.17370633  0.47408172    -0.61100
O357        O  0.25559057  0.16069147  0.45001900    -0.52000
C358        C  0.30743930  0.16124168  0.46144418     0.70100
O359        O  0.30075059  0.15933067  0.47748778    -0.46800
C360        C  0.26709263  0.11518385  0.44901286     0.74800
O361        O  0.27873505  0.12889116  0.49445785    -0.58700
O362        O  0.25790552  0.12989763  0.44805246    -0.48800
O363        O  0.25347941  0.14301282  0.49046183    -0.55100
C364        C  0.25641624  0.17501797  0.45982590     0.84900
O365        O  0.29869404  0.15280801  0.44901564    -0.57000
O366        O  0.28139767  0.11618408  0.45895343    -0.60300
C367        C  0.44966875  0.25198513  0.44906028     0.86300
C368        C  0.43152213  0.24215855  0.45398182    -0.53900
C369        C  0.41785067  0.24397670  0.44113230     0.09200
C370        C  0.42342657  0.25617813  0.42442042     0.20200
C371        C  0.45459859  0.24441193  0.42966620    -0.54700
C372        C  0.44086411  0.24622092  0.41670323     0.09300
C373        C  0.44429990  0.27198590  0.44547644    -0.54200
C374        C  0.43052004  0.27448612  0.43299422     0.09900
H375        H  0.42997378  0.23360390  0.46625983     0.14400
H376        H  0.41222203  0.25817553  0.41417059     0.00100
H377        H  0.46705342  0.23675677  0.42656210     0.14700
H378        H  0.45066397  0.28343518  0.45271137     0.14500
C379        C  0.54786181  0.26375742  0.54967392     0.86300
C380        C  0.56641882  0.25480347  0.54435182    -0.53900
C381        C  0.57968567  0.25569727  0.55771088     0.09200
C382        C  0.57361495  0.26671471  0.57496262     0.20200
C383        C  0.54275835  0.25505995  0.56850364    -0.54700
C384        C  0.55618006  0.25639858  0.58178133     0.09300
C385        C  0.55308932  0.28372524  0.55442423    -0.54200
C386        C  0.56637290  0.28535693  0.56759057     0.09900
H387        H  0.56836747  0.24687102  0.53175558     0.14400
H388        H  0.58455534  0.26810646  0.58559945     0.00100
H389        H  0.53016601  0.24716245  0.57052106     0.14700
H390        H  0.54710205  0.29596003  0.54837715     0.14500
In391      In  0.85019438  0.54506528  0.28891047     1.36900
C392        C  0.86565198  0.51374505  0.27766822     0.77400
O393        O  0.83152303  0.56363458  0.27274866    -0.61100
O394        O  0.82471726  0.53527556  0.27510946    -0.52000
C395        C  0.83286117  0.54849515  0.32143129     0.70100
O396        O  0.83819872  0.53313948  0.31531668    -0.46800
C397        C  0.87942490  0.56599823  0.28075763     0.74800
O398        O  0.86842997  0.52038757  0.29356518    -0.58700
O399        O  0.86573399  0.56419890  0.27024812    -0.48800
O400        O  0.85430225  0.52271628  0.26803113    -0.55100
C401        C  0.82067937  0.55077633  0.26832389     0.84900
O402        O  0.83802788  0.56204395  0.31178937    -0.57000
O403        O  0.87769449  0.55783837  0.29613690    -0.60300
In404      In  0.85473338  0.47126661  0.72587961     1.36900
C405        C  0.86677816  0.50483663  0.73542922     0.77400
O406        O  0.84629272  0.45973918  0.75328332    -0.61100
O407        O  0.82567716  0.47221664  0.73652203    -0.52000
C408        C  0.83647393  0.46410108  0.69452444     0.70100
O409        O  0.84283839  0.47985044  0.69808582    -0.46800
C410        C  0.88409340  0.44978090  0.73131217     0.74800
O411        O  0.85150370  0.49840633  0.74072524    -0.58700
O412        O  0.86956964  0.44900907  0.74096590    -0.48800
O413        O  0.87525234  0.49460089  0.72418346    -0.55100
C414        C  0.82952237  0.46419685  0.75153821     0.84900
O415        O  0.84112346  0.45194646  0.70603154    -0.57000
O416        O  0.88322591  0.46084786  0.71780951    -0.60300
In417      In  0.86163092  0.29653802  0.55171971     1.36900
C418        C  0.87652402  0.28513929  0.52007998     0.77400
O419        O  0.89047311  0.30092343  0.56231929    -0.61100
O420        O  0.87449315  0.27893896  0.57317925    -0.52000
C421        C  0.84628031  0.32898587  0.55875211     0.70100
O422        O  0.85139173  0.32429526  0.54272049    -0.46800
C423        C  0.83040478  0.27799515  0.55459416     0.74800
O424        O  0.87733618  0.30176342  0.52514602    -0.58700
O425        O  0.84177193  0.27941823  0.56768421    -0.48800
O426        O  0.86786396  0.27477320  0.53113258    -0.55100
C427        C  0.88987487  0.28697347  0.57279028     0.84900
O428        O  0.85096920  0.31791493  0.57131883    -0.57000
O429        O  0.83512703  0.28621004  0.53989040    -0.60300
In430      In  0.85699653  0.71546674  0.46689154     1.36900
C431        C  0.86687460  0.72485390  0.50122924     0.77400
O432        O  0.88749030  0.71143914  0.46070219    -0.61100
O433        O  0.87045693  0.72223700  0.43966732    -0.52000
C434        C  0.83621707  0.68520159  0.46247609     0.70100
O435        O  0.84210577  0.69030055  0.47803420    -0.46800
C436        C  0.83538243  0.74379955  0.45941999     0.74800
O437        O  0.87406800  0.71132855  0.49284042    -0.58700
O438        O  0.85277775  0.74468524  0.45847039    -0.48800
O439        O  0.85417810  0.73264601  0.49236135    -0.55100
C440        C  0.88666953  0.71861501  0.44478963     0.84900
O441        O  0.84267670  0.69439540  0.44914242    -0.57000
O442        O  0.82911338  0.72827793  0.46412009    -0.60300
C443        C  0.73184142  0.55057466  0.45705029     0.86300
C444        C  0.74010546  0.54642363  0.43785263    -0.53900
C445        C  0.73971535  0.56086542  0.42563467     0.09200
C446        C  0.73021218  0.57825230  0.43373656     0.20200
C447        C  0.74188761  0.56799961  0.46360223    -0.54700
C448        C  0.74175248  0.58233307  0.45128446     0.09300
C449        C  0.71216110  0.55727235  0.45308664    -0.54200
C450        C  0.71108691  0.57149398  0.44096860     0.09900
H451        H  0.74697233  0.53348566  0.43471700     0.14400
H452        H  0.72925396  0.58994263  0.42386691     0.00100
H453        H  0.74949066  0.56851928  0.47652107     0.14700
H454        H  0.69962236  0.55193238  0.45927692     0.14500
C455        C  0.73751971  0.45296726  0.55764484     0.86300
C456        C  0.74734143  0.45899248  0.57552816    -0.53900
C457        C  0.74528000  0.44713010  0.59015400     0.09200
C458        C  0.73363438  0.43003084  0.58541065     0.20200
C459        C  0.74532158  0.43360454  0.55396303    -0.54700
C460        C  0.74409205  0.42176501  0.56864479     0.09300
C461        C  0.71746146  0.44965447  0.56327379    -0.54200
C462        C  0.71519023  0.43787667  0.57774992     0.09900
H463        H  0.75617761  0.47105709  0.57610743     0.14400
H464        H  0.73175093  0.42023674  0.59710564     0.00100
H465        H  0.75431887  0.43025506  0.54242594     0.14700
H466        H  0.70586786  0.45636511  0.55650153     0.14500
In467      In  0.03578191  0.22163959  0.64440290     1.36900
C468        C  0.00329116  0.23249530  0.63105254     0.77400
O469        O  0.02819263  0.23148672  0.67275294    -0.61100
O470        O  0.04936771  0.24559397  0.65795538    -0.52000
C471        C  0.04208817  0.18982195  0.66160921     0.70100
O472        O  0.02626460  0.19426294  0.65592255    -0.46800
C473        C  0.05708720  0.22801573  0.61482283     0.74800
O474        O  0.01266556  0.24174234  0.64230069    -0.58700
O475        O  0.06041919  0.23447596  0.63061669    -0.48800
O476        O  0.01039387  0.21718346  0.62685655    -0.55100
C477        C  0.03981190  0.24447385  0.67259796     0.84900
O478        O  0.05475189  0.20076947  0.65691841    -0.57000
O479        O  0.04354567  0.21709990  0.61451347    -0.60300
In480      In  0.21626827  0.04746277  0.64468052     1.36900
C481        C  0.22922607  0.01545718  0.63135450     0.77400
O482        O  0.20721469  0.05386924  0.61537888    -0.61100
O483        O  0.22257590  0.07372643  0.63007340    -0.52000
C484        C  0.18545739  0.05286266  0.66525108     0.70100
O485        O  0.18696634  0.04005438  0.65354838    -0.46800
C486        C  0.24291419  0.05259267  0.66899634     0.74800
O487        O  0.21402457  0.01663009  0.64001127    -0.58700
O488        O  0.23989686  0.06354475  0.65581204    -0.48800
O489        O  0.23739665  0.03065319  0.62944259    -0.55100
C490        C  0.21543379  0.06919294  0.61494671     0.84900
O491        O  0.19929196  0.06329926  0.66560905    -0.57000
O492        O  0.23224492  0.03887275  0.66958998    -0.60300
In493      In  0.94606296  0.78805179  0.64471721     1.36900
C494        C  0.98026046  0.78164112  0.63219454     0.77400
O495        O  0.94882590  0.76199173  0.66077231    -0.61100
O496        O  0.92739423  0.78064264  0.66838389    -0.52000
C497        C  0.94299116  0.81985615  0.66331773     0.70100
O498        O  0.95782353  0.81078035  0.66220577    -0.46800
C499        C  0.92534011  0.77714873  0.61627861     0.74800
O500        O  0.96883979  0.79148564  0.62339779    -0.58700
O501        O  0.92879598  0.76741426  0.63022630    -0.48800
O502        O  0.97449344  0.77644403  0.64784667    -0.55100
C503        C  0.93559383  0.76567792  0.67158748     0.84900
O504        O  0.93029425  0.81374337  0.65310917    -0.57000
O505        O  0.93207980  0.79318896  0.61704142    -0.60300
In506      In  0.77426342  0.97536130  0.65170921     1.36900
C507        C  0.76500280  0.00827105  0.63810721     0.77400
O508        O  0.78401095  0.96158003  0.62533435    -0.61100
O509        O  0.75559472  0.96041687  0.63283166    -0.52000
C510        C  0.80435759  0.97460153  0.67265273     0.70100
O511        O  0.79164745  0.98629603  0.67449101    -0.46800
C512        C  0.75348062  0.96045118  0.67791019     0.74800
O513        O  0.78116234  0.00178073  0.63654531    -0.58700
O514        O  0.76241187  0.95071946  0.66648843    -0.48800
O515        O  0.75410643  0.99814322  0.64714363    -0.55100
C516        C  0.76785300  0.95651434  0.62102359     0.84900
O517        O  0.80269985  0.96435885  0.65864311    -0.57000
O518        O  0.75524909  0.97757610  0.67567867    -0.60300
C519        C  0.04179401  0.05505548  0.75810073     0.86300
C520        C  0.03922180  0.07440100  0.74965130    -0.53900
C521        C  0.05371202  0.08615795  0.75246254     0.09200
C522        C  0.06949988  0.07750220  0.76387000     0.20200
C523        C  0.06027551  0.04836302  0.75012652    -0.54700
C524        C  0.07471079  0.06021803  0.75242610     0.09300
C525        C  0.04543239  0.05887694  0.77852691    -0.54200
C526        C  0.05980952  0.07047346  0.78181861     0.09900
H527        H  0.02750742  0.07865970  0.74147900     0.14400
H528        H  0.08121826  0.08695985  0.76655985     0.00100
H529        H  0.06138172  0.03603228  0.74169911     0.14700
H530        H  0.03691812  0.05321622  0.78961477     0.14500
C531        C  0.94274251  0.95746571  0.75888562     0.86300
C532        C  0.94564323  0.93892606  0.74903243    -0.53900
C533        C  0.93255333  0.92595253  0.75296006     0.09200
C534        C  0.91818052  0.93237060  0.76762518     0.20200
C535        C  0.92289279  0.96268199  0.75392261    -0.54700
C536        C  0.90978062  0.94984176  0.75846973     0.09300
C537        C  0.94213851  0.95280764  0.77938545    -0.54200
C538        C  0.92979053  0.93949841  0.78435534     0.09900
H539        H  0.95565652  0.93654806  0.73810690     0.14400
H540        H  0.90791572  0.92168745  0.77151838     0.00100
H541        H  0.91974627  0.97510331  0.74614080     0.14700
H542        H  0.95066539  0.96005320  0.78932267     0.14500
In543      In  0.52204823  0.86011740  0.29566577     1.36900
C544        C  0.49026015  0.87548387  0.28480564     0.77400
O545        O  0.53299659  0.88917200  0.29844536    -0.61100
O546        O  0.54721671  0.87077106  0.28075589    -0.52000
C547        C  0.52241445  0.84275592  0.32851250     0.70100
O548        O  0.50960539  0.84093425  0.31696851    -0.46800
C549        C  0.52929286  0.83168804  0.27405138     0.74800
O550        O  0.50126652  0.86710546  0.27417838    -0.58700
O551        O  0.54157172  0.83921987  0.28377238    -0.48800
O552        O  0.49572894  0.87641152  0.30139177    -0.55100
C553        C  0.54608117  0.88686191  0.28700557     0.84900
O554        O  0.53433976  0.85456817  0.32384677    -0.57000
O555        O  0.51335007  0.83852337  0.27587929    -0.60300
In556      In  0.45127714  0.86673797  0.72271295     1.36900
C557        C  0.48289071  0.88109023  0.73489028     0.77400
O558        O  0.44171178  0.89558578  0.71598707    -0.61100
O559        O  0.42984884  0.88169501  0.73894696    -0.52000
C560        C  0.44665752  0.84951465  0.69034287     0.70100
O561        O  0.46236498  0.85322249  0.69684661    -0.46800
C562        C  0.44577473  0.83741945  0.74389892     0.74800
O563        O  0.47869993  0.88132400  0.71788902    -0.58700
O564        O  0.43284452  0.84810980  0.73926608    -0.48800
O565        O  0.47097347  0.87347486  0.74510165    -0.55100
C566        C  0.43108366  0.89647801  0.72991048     0.84900
O567        O  0.43343790  0.85622587  0.69954677    -0.57000
O568        O  0.46145147  0.84169313  0.73743384    -0.60300
In569      In  0.72376238  0.87558362  0.47115285     1.36900
C570        C  0.73254646  0.89264703  0.50253667     0.77400
O571        O  0.74620795  0.85713127  0.48056752    -0.61100
O572        O  0.73975670  0.85719816  0.45195282    -0.52000
C573        C  0.69401425  0.85339191  0.46951764     0.70100
O574        O  0.69617093  0.86710220  0.45893502    -0.46800
C575        C  0.72684256  0.90466910  0.44877182     0.74800
O576        O  0.71652554  0.88624172  0.49979068    -0.58700
O577        O  0.73577789  0.88994273  0.44640642    -0.48800
O578        O  0.74371606  0.89021028  0.48934246    -0.55100
C579        C  0.74966999  0.85072296  0.46474690     0.84900
O580        O  0.70638200  0.85198188  0.48160865    -0.57000
O581        O  0.71486120  0.90383789  0.46157946    -0.60300
In582      In  0.27884369  0.86999028  0.55048751     1.36900
C583        C  0.26608602  0.88456579  0.51940604     0.77400
O584        O  0.26635792  0.84461574  0.53900680    -0.61100
O585        O  0.25419171  0.85620303  0.56317504    -0.52000
C586        C  0.30930619  0.84974345  0.55560386     0.70100
O587        O  0.30768343  0.86089014  0.54226129    -0.46800
C588        C  0.27825391  0.89993061  0.57143712     0.74800
O589        O  0.28231008  0.87813274  0.52062971    -0.58700
O590        O  0.27247284  0.88457130  0.57718674    -0.48800
O591        O  0.25665299  0.88353406  0.53410841    -0.55100
C592        C  0.25388175  0.84355466  0.55122525     0.84900
O593        O  0.29613464  0.85037784  0.56708438    -0.57000
O594        O  0.28645557  0.89938328  0.55599152    -0.60300
C595        C  0.58626335  0.76449452  0.45221669     0.86300
C596        C  0.57118169  0.76710102  0.46716833    -0.53900
C597        C  0.55485018  0.75812922  0.46382639     0.09200
C598        C  0.55535132  0.74691702  0.44571369     0.20200
C599        C  0.58849916  0.74332298  0.45100499    -0.54700
C600        C  0.57230004  0.73411223  0.44755194     0.09300
C601        C  0.57692399  0.76980531  0.43401421    -0.54200
C602        C  0.56069384  0.76102508  0.43072096     0.09900
H603        H  0.57326580  0.77583834  0.47914156     0.14400
H604        H  0.54258789  0.73917887  0.44252178     0.00100
H605        H  0.60133764  0.73597488  0.45314905     0.14700
H606        H  0.58197701  0.78082877  0.42511689     0.14500
C607        C  0.44662484  0.75080725  0.55477498     0.86300
C608        C  0.42806997  0.76080733  0.55078146    -0.53900
C609        C  0.41461756  0.75839721  0.56407613     0.09200
C610        C  0.42096260  0.74578929  0.58011241     0.20200
C611        C  0.45196622  0.75740492  0.57405680    -0.54700
C612        C  0.43854104  0.75572276  0.58727106     0.09300
C613        C  0.44076049  0.73088350  0.55719769    -0.54200
C614        C  0.42759667  0.72759187  0.57049904     0.09900
H615        H  0.42554355  0.76955129  0.53894644     0.14400
H616        H  0.41019033  0.74363323  0.59083114     0.00100
H617        H  0.46443292  0.76542919  0.57635852     0.14700
H618        H  0.44672709  0.72020693  0.54861708     0.14500
In619      In  0.63374211  0.02732384  0.22768871     1.36900
C620        C  0.61847901  0.99438223  0.23540138     0.77400
O621        O  0.66333601  0.02396956  0.23575443    -0.61100
O622        O  0.64491117  0.03662921  0.25492564    -0.52000
C623        C  0.65263895  0.03451322  0.19639834     0.70100
O624        O  0.64858225  0.01841624  0.20161879    -0.46800
C625        C  0.60574986  0.05071816  0.23339163     0.74800
O626        O  0.61372126  0.00403064  0.22170694    -0.58700
O627        O  0.62000392  0.05030422  0.24334631    -0.48800
O628        O  0.63149678  0.00127384  0.24450147    -0.55100
C629        C  0.66119470  0.03135146  0.25140467     0.84900
O630        O  0.64558567  0.04691330  0.20637858    -0.57000
O631        O  0.60635291  0.03983056  0.21980432    -0.60300
In632      In  0.63526484  0.20751772  0.03867800     1.36900
C633        C  0.62091081  0.21029579  0.00475572     0.77400
O634        O  0.61192606  0.20292450  0.05947204    -0.61100
O635        O  0.61519618  0.22931759  0.04741692    -0.52000
C636        C  0.65666541  0.17733101  0.04301662     0.70100
O637        O  0.66058033  0.19057223  0.03249019    -0.46800
C638        C  0.65846445  0.23360287  0.04911308     0.74800
O639        O  0.61419872  0.19963064  0.01688907    -0.58700
O640        O  0.65100111  0.22282890  0.06071588    -0.48800
O641        O  0.63580693  0.21774217  0.00950036    -0.55100
C642        C  0.60607821  0.21931808  0.05840493     0.84900
O643        O  0.64092349  0.17872495  0.05055968    -0.57000
O644        O  0.65440689  0.23036476  0.03253088    -0.60300
In645      In  0.62799893  0.96107713  0.79064938     1.36900
C646        C  0.61751737  0.99462295  0.77886719     0.77400
O647        O  0.65384078  0.94464836  0.78602761    -0.61100
O648        O  0.64072290  0.95689140  0.76280366    -0.52000
C649        C  0.64614984  0.96056402  0.82289791     0.70100
O650        O  0.64715871  0.97372942  0.81151913    -0.46800
C651        C  0.59871853  0.93952931  0.78484180     0.74800
O652        O  0.60932548  0.98624803  0.79187566    -0.58700
O653        O  0.61390755  0.93762545  0.77653086    -0.48800
O654        O  0.63168563  0.98635471  0.77299345    -0.55100
C655        C  0.65417318  0.94760875  0.76883519     0.84900
O656        O  0.63416927  0.94867480  0.81869385    -0.57000
O657        O  0.59879252  0.95186288  0.79711734    -0.60300
In658      In  0.62033750  0.78872583  0.96160169     1.36900
C659        C  0.60944769  0.77850954  0.99579447     0.77400
O660        O  0.59010005  0.79174220  0.95473444    -0.61100
O661        O  0.60749354  0.77833031  0.93543535    -0.52000
C662        C  0.63721891  0.82104296  0.95579268     0.70100
O663        O  0.63226364  0.81567532  0.97167358    -0.46800
C664        C  0.64662296  0.76414054  0.95491396     0.74800
O665        O  0.62275550  0.77128338  0.98718988    -0.58700
O666        O  0.62973264  0.76105216  0.95191692    -0.48800
O667        O  0.60201599  0.79169374  0.98716901    -0.55100
C668        C  0.59123819  0.78290123  0.93976632     0.84900
O669        O  0.63179492  0.81081492  0.94287648    -0.57000
O670        O  0.65003499  0.78000784  0.96109184    -0.60300
C671        C  0.75620163  0.04293120  0.06267599     0.86300
C672        C  0.74614943  0.03884253  0.08097380    -0.53900
C673        C  0.74666794  0.05272152  0.09363984     0.09200
C674        C  0.75822981  0.06951394  0.08714288     0.20200
C675        C  0.74813928  0.06140430  0.05606749    -0.54700
C676        C  0.74882865  0.07530751  0.06879970     0.09300
C677        C  0.77603312  0.04769383  0.06850650    -0.54200
C678        C  0.77733211  0.06145967  0.08118406     0.09900
H679        H  0.73800660  0.02645724  0.08321084     0.14400
H680        H  0.75903340  0.08072499  0.09753136     0.00100
H681        H  0.74115102  0.06289725  0.04287027     0.14700
H682        H  0.78847450  0.04131161  0.06319191     0.14500
C683        C  0.74448627  0.94720686  0.96088740     0.86300
C684        C  0.73473771  0.95396700  0.94332133    -0.53900
C685        C  0.73640616  0.94257205  0.92840894     0.09200
C686        C  0.74863260  0.92546630  0.93225873     0.20200
C687        C  0.73652631  0.92768908  0.96380574    -0.54700
C688        C  0.73837738  0.91623915  0.94879528     0.09300
C689        C  0.76451266  0.94406994  0.95528342    -0.54200
C690        C  0.76715727  0.93308188  0.94032989     0.09900
H691        H  0.72588399  0.96606222  0.94319451     0.14400
H692        H  0.75040263  0.91636073  0.92005020     0.00100
H693        H  0.72778210  0.92392537  0.97543126     0.14700
H694        H  0.77595398  0.95042170  0.96260091     0.14500
In695      In  0.02738380  0.64512454  0.22575512     1.36900
C696        C  0.99648340  0.62803943  0.23614471     0.77400
O697        O  0.03850518  0.61667373  0.22030635    -0.61100
O698        O  0.05053380  0.63265985  0.24157964    -0.52000
C699        C  0.03118631  0.66381236  0.19403405     0.70100
O700        O  0.01664459  0.66404554  0.20370042    -0.46800
C701        C  0.03131065  0.67375864  0.24783660     0.74800
O702        O  0.00116535  0.62924119  0.21924391    -0.58700
O703        O  0.01576385  0.66710891  0.24378157    -0.48800
O704        O  0.00759037  0.63553540  0.24713515    -0.55100
C705        C  0.04988125  0.61731526  0.23350545     0.84900
O706        O  0.04309868  0.65238741  0.19952693    -0.57000
O707        O  0.04498409  0.66562198  0.24060862    -0.60300
In708      In  0.21398365  0.63529216  0.04604979     1.36900
C709        C  0.22673949  0.62119682  0.01418114     0.77400
O710        O  0.22575705  0.66191869  0.03670916    -0.61100
O711        O  0.23104131  0.65314962  0.06433555    -0.52000
C712        C  0.18150455  0.65278963  0.05023394     0.70100
O713        O  0.18837645  0.64879945  0.03468278    -0.46800
C714        C  0.22259848  0.60638845  0.06714661     0.74800
O715        O  0.21098529  0.61708604  0.02067322    -0.58700
O716        O  0.23169641  0.62116586  0.06713565    -0.48800
O717        O  0.23539600  0.63276369  0.02375294    -0.55100
C718        C  0.23330671  0.66533255  0.05202054     0.84900
O719        O  0.19003148  0.64562708  0.06362620    -0.57000
O720        O  0.20831651  0.60676913  0.05711444    -0.60300
In721      In  0.94734041  0.64770659  0.79499049     1.36900
C722        C  0.97935974  0.63262437  0.78440746     0.77400
O723        O  0.93863919  0.61824213  0.79983633    -0.61100
O724        O  0.92300240  0.63452416  0.78131065    -0.52000
C725        C  0.94586243  0.66724831  0.82634036     0.70100
O726        O  0.95834414  0.66906909  0.81430346    -0.46800
C727        C  0.93791341  0.67479809  0.77269713     0.74800
O728        O  0.97366063  0.63234984  0.80098428    -0.58700
O729        O  0.92601572  0.66523098  0.78119593    -0.48800
O730        O  0.96873569  0.64092651  0.77339875    -0.55100
C731        C  0.92544815  0.61890519  0.78845742     0.84900
O732        O  0.93513995  0.65389241  0.82345499    -0.57000
O733        O  0.95452399  0.67037326  0.77565008    -0.60300
In734      In  0.77131457  0.64573250  0.97743571     1.36900
C735        C  0.75850441  0.63081649  0.00891769     0.77400
O736        O  0.75349237  0.66970801  0.98441395    -0.61100
O737        O  0.75582141  0.66197521  0.95615027    -0.52000
C738        C  0.80354187  0.66419814  0.97498680     0.70100
O739        O  0.79342033  0.66418520  0.98923921    -0.46800
C740        C  0.76480847  0.61574797  0.95729123     0.74800
O741        O  0.77494463  0.62843968  0.00335181    -0.58700
O742        O  0.75646137  0.63078434  0.95502177    -0.48800
O743        O  0.74918529  0.64142039  0.99879705    -0.55100
C744        C  0.74845184  0.67253373  0.96793688     0.84900
O745        O  0.79796563  0.65341977  0.96258865    -0.57000
O746        O  0.77767377  0.61646261  0.96904392    -0.60300
C747        C  0.05169091  0.75870254  0.05458638     0.86300
C748        C  0.05617380  0.77849337  0.05973595    -0.53900
C749        C  0.06839179  0.78032203  0.07376458     0.09200
C750        C  0.07570490  0.76170929  0.08143457     0.20200
C751        C  0.07061670  0.74986039  0.05026052    -0.54700
C752        C  0.08311821  0.75097893  0.06437565     0.09300
C753        C  0.04582195  0.74930323  0.07276946    -0.54200
C754        C  0.05818218  0.75071739  0.08705293     0.09900
H755        H  0.04980047  0.79030047  0.05302619     0.14400
H756        H  0.08600626  0.76369003  0.09253654     0.00100
H757        H  0.07343010  0.74120364  0.03839724     0.14700
H758        H  0.03324530  0.74118867  0.07365412     0.14500
C759        C  0.94304313  0.76010673  0.96528730     0.86300
C760        C  0.92467087  0.75199568  0.97250153    -0.53900
C761        C  0.91000578  0.75421513  0.96091046     0.09200
C762        C  0.91475081  0.76555009  0.94334226     0.20200
C763        C  0.94536570  0.75170151  0.94603350    -0.54700
C764        C  0.93076337  0.75433216  0.93433041     0.09300
C765        C  0.93866960  0.78030019  0.96175004    -0.54200
C766        C  0.92382587  0.78378609  0.95054666     0.09900
H767        H  0.92311456  0.74361288  0.98477966     0.14400
H768        H  0.90263571  0.76748123  0.93426344     0.00100
H769        H  0.95738610  0.74347573  0.94233753     0.14700
H770        H  0.94734689  0.79096781  0.96754046     0.14500
In771      In  0.44971233  0.71268838  0.86399269     1.36900
C772        C  0.48273642  0.72465284  0.87545858     0.77400
O773        O  0.45647544  0.72447964  0.83630915    -0.61100
O774        O  0.43129263  0.73270413  0.84931296    -0.52000
C775        C  0.44470031  0.67970617  0.84747329     0.70100
O776        O  0.46019056  0.68520258  0.85312512    -0.46800
C777        C  0.43087258  0.72162623  0.89492215     0.74800
O778        O  0.47518856  0.71033733  0.88191661    -0.58700
O779        O  0.43011478  0.73067271  0.88007352    -0.48800
O780        O  0.47380953  0.73214255  0.86259922    -0.55100
C781        C  0.44209977  0.73434938  0.83559360     0.84900
O782        O  0.43157658  0.69029494  0.85184652    -0.57000
O783        O  0.44030871  0.70702869  0.89362668    -0.60300
In784      In  0.53300771  0.27092151  0.86439852     1.36900
C785        C  0.49899027  0.26414036  0.87716436     0.77400
O786        O  0.53374492  0.24643688  0.84613482    -0.61100
O787        O  0.55675994  0.26464051  0.84514397    -0.52000
C788        C  0.53182237  0.30290668  0.84585402     0.70100
O789        O  0.54172605  0.30068536  0.86005582    -0.46800
C790        C  0.55329234  0.25981939  0.89305208     0.74800
O791        O  0.50503383  0.25826610  0.86190690    -0.58700
O792        O  0.54597232  0.24908101  0.88159537    -0.48800
O793        O  0.51011210  0.27456116  0.88554564    -0.55100
C794        C  0.54943454  0.25000957  0.83932151     0.84900
O795        O  0.52196759  0.28916052  0.84205070    -0.57000
O796        O  0.55022018  0.27668510  0.88986419    -0.60300
In797      In  0.71348997  0.46397930  0.88390631     1.36900
C798        C  0.72368502  0.49592656  0.89908928     0.77400
O799        O  0.70414339  0.45463628  0.91257735    -0.61100
O800        O  0.72493683  0.43937692  0.89883276    -0.52000
C801        C  0.68470671  0.45658817  0.86166329     0.70100
O802        O  0.68588963  0.47151118  0.87050444    -0.46800
C803        C  0.73859013  0.46284647  0.85703932     0.74800
O804        O  0.70685928  0.49168134  0.89694105    -0.58700
O805        O  0.73801892  0.45135266  0.87014731    -0.48800
O806        O  0.73486888  0.48377056  0.89369012    -0.55100
C807        C  0.71571595  0.44163308  0.91347344     0.84900
O808        O  0.69705853  0.44509630  0.86576205    -0.57000
O809        O  0.72637232  0.47525784  0.85795977    -0.60300
In810      In  0.28331484  0.54041758  0.87045494     1.36900
C811        C  0.26827258  0.50976986  0.88435449     0.77400
O812        O  0.29090311  0.54635124  0.90050513    -0.61100
O813        O  0.27613419  0.56638418  0.88549697    -0.52000
C814        C  0.31443431  0.54253763  0.84960278     0.70100
O815        O  0.31032435  0.52863389  0.85925021    -0.46800
C816        C  0.25882299  0.54563705  0.84372823     0.74800
O817        O  0.28548791  0.51140594  0.88153023    -0.58700
O818        O  0.26779275  0.53085826  0.84558703    -0.48800
O819        O  0.25902315  0.52384274  0.88009897    -0.55100
C820        C  0.28242216  0.56152725  0.90094374     0.84900
O821        O  0.30357783  0.55584943  0.85210895    -0.57000
O822        O  0.26250746  0.55774188  0.85563614    -0.60300
C823        C  0.45437792  0.54079356  0.75211990     0.86300
C824        C  0.45059405  0.54472066  0.73169412    -0.53900
C825        C  0.43638335  0.55664871  0.72832268     0.09200
C826        C  0.42726397  0.56414608  0.74644753     0.20200
C827        C  0.45751930  0.56009954  0.76060603    -0.54700
C828        C  0.44327614  0.57227129  0.75791084     0.09300
C829        C  0.43567181  0.53481930  0.76035782    -0.54200
C830        C  0.42149076  0.54704255  0.75784659     0.09900
H831        H  0.45875660  0.53848670  0.72069081     0.14400
H832        H  0.41574884  0.57398865  0.74419221     0.00100
H833        H  0.46889717  0.56366353  0.76955137     0.14700
H834        H  0.43422220  0.52259703  0.76894989     0.14500
C835        C  0.58572411  0.42949611  0.76649552     0.86300
C836        C  0.58723163  0.42699349  0.74531286    -0.53900
C837        C  0.57058754  0.42437301  0.73635704     0.09200
C838        C  0.55387338  0.42406857  0.75004671     0.20200
C839        C  0.57156343  0.44520960  0.76908208    -0.54700
C840        C  0.55511121  0.44254290  0.76027359     0.09300
C841        C  0.57509306  0.41246247  0.77327201    -0.54200
C842        C  0.55871384  0.40946583  0.76477161     0.09900
H843        H  0.60046065  0.42749733  0.73816595     0.14400
H844        H  0.54009704  0.42216210  0.74378111     0.00100
H845        H  0.57424616  0.45747198  0.77719094     0.14700
H846        H  0.57916268  0.40380768  0.78478617     0.14500
In847      In  0.12622496  0.54931464  0.73186622     1.36900
C848        C  0.11334075  0.51574109  0.74050812     0.77400
O849        O  0.15445113  0.54245158  0.74167601    -0.61100
O850        O  0.14067421  0.56506840  0.75426713    -0.52000
C851        C  0.14372697  0.55643003  0.69968722     0.70100
O852        O  0.13830722  0.54057381  0.70423791    -0.46800
C853        C  0.09623530  0.56931106  0.74028121     0.74800
O854        O  0.10738889  0.52500009  0.72701623    -0.58700
O855        O  0.11022899  0.56823270  0.75053943    -0.48800
O856        O  0.12612703  0.52355669  0.74921988    -0.55100
C857        C  0.15510895  0.55530919  0.75337720     0.84900
O858        O  0.13853890  0.56886238  0.71070037    -0.57000
O859        O  0.09796590  0.56081709  0.72512394    -0.60300
In860      In  0.13090658  0.47502801  0.29602974     1.36900
C861        C  0.11611464  0.50788662  0.28803341     0.77400
O862        O  0.14351622  0.46129697  0.27129678    -0.61100
O863        O  0.15842017  0.48302063  0.28399400    -0.52000
C864        C  0.14926286  0.46725438  0.32742327     0.70100
O865        O  0.14116543  0.48239778  0.32479063    -0.46800
C866        C  0.10231969  0.45317764  0.28770288     0.74800
O867        O  0.10867700  0.49677723  0.29922915    -0.58700
O868        O  0.11608775  0.45586211  0.27731659    -0.48800
O869        O  0.13156372  0.50266571  0.28197156    -0.55100
C870        C  0.15788331  0.47115447  0.27123741     0.84900
O871        O  0.14655328  0.45568443  0.31479427    -0.57000
O872        O  0.10341677  0.46118812  0.30319099    -0.60300
In873      In  0.12536303  0.72653486  0.54821732     1.36900
C874        C  0.10925338  0.73737721  0.51685491     0.77400
O875        O  0.09675222  0.71979560  0.55905196    -0.61100
O876        O  0.11101705  0.74229764  0.57080187    -0.52000
C877        C  0.14475889  0.69542919  0.55417014     0.70100
O878        O  0.13839241  0.69978319  0.53852310    -0.46800
C879        C  0.15480246  0.74790262  0.54871306     0.74800
O880        O  0.11766148  0.74812791  0.52757777    -0.58700
O881        O  0.14451503  0.74567900  0.56274475    -0.48800
O882        O  0.10913329  0.72077139  0.52221121    -0.55100
C883        C  0.09612795  0.73334108  0.56997020     0.84900
O884        O  0.13933512  0.70588111  0.56699248    -0.57000
O885        O  0.14984938  0.73920575  0.53450231    -0.60300
In886      In  0.13472844  0.29597478  0.47035988     1.36900
C887        C  0.11825906  0.28275663  0.50087650     0.77400
O888        O  0.10601053  0.30315236  0.46079146    -0.61100
O889        O  0.12112660  0.28313660  0.44567929    -0.52000
C890        C  0.15335259  0.32772831  0.46866559     0.70100
O891        O  0.15083637  0.31912019  0.48362158    -0.46800
C892        C  0.16407954  0.27509079  0.46361178     0.74800
O893        O  0.11810885  0.29967136  0.49672380    -0.58700
O894        O  0.15973959  0.28057023  0.47962350    -0.48800
O895        O  0.12689517  0.27285668  0.48939073    -0.55100
C896        C  0.10606836  0.29166555  0.44768098     0.84900
O897        O  0.14444199  0.32131054  0.45522588    -0.57000
O898        O  0.15314105  0.28018774  0.45106871    -0.60300
C899        C  0.25119036  0.46517334  0.46190824     0.86300
C900        C  0.24140455  0.46890917  0.44324450    -0.53900
C901        C  0.24277131  0.45488207  0.43060928     0.09200
C902        C  0.25434974  0.43839759  0.43782648     0.20200
C903        C  0.24295966  0.44687644  0.46842605    -0.54700
C904        C  0.24398179  0.43294531  0.45586885     0.09300
C905        C  0.27108496  0.46079485  0.45649173    -0.54200
C906        C  0.27312720  0.44693090  0.44398686     0.09900
H907        H  0.23283361  0.48076675  0.44042671     0.14400
H908        H  0.25596826  0.42700333  0.42774505     0.00100
H909        H  0.23543269  0.44553111  0.48143981     0.14700
H910        H  0.28279973  0.46811731  0.46229018     0.14500
C911        C  0.24727057  0.56004700  0.56548555     0.86300
C912        C  0.23743352  0.55651720  0.58425721    -0.53900
C913        C  0.23812884  0.57102867  0.59640445     0.09200
C914        C  0.24908500  0.58773595  0.58858723     0.20200
C915        C  0.23844237  0.57783507  0.55834354    -0.54700
C916        C  0.23859894  0.59220728  0.57041202     0.09300
C917        C  0.26688208  0.56518095  0.57080453    -0.54200
C918        C  0.26824868  0.57969282  0.58247678     0.09900
H919        H  0.22952736  0.54429870  0.58754340     0.14400
H920        H  0.25015265  0.59953242  0.59825226     0.00100
H921        H  0.23122572  0.57848004  0.54519207     0.14700
H922        H  0.27898425  0.55810108  0.56531288     0.14500
C923        C  0.25001340  0.47973978  0.47718913    -0.20100
C924        C  0.25828690  0.47616914  0.49461901     0.36200
C925        C  0.25658952  0.48888550  0.50903707    -0.26000
C926        C  0.24708416  0.50541868  0.50648641     0.02600
C927        C  0.23918706  0.50947376  0.48918241     0.27400
C928        C  0.24070573  0.49665105  0.47471523    -0.25200
N929        N  0.26857173  0.45957953  0.49773222    -0.82600
H930        H  0.26303970  0.48596604  0.52224391     0.13200
C931        C  0.24659919  0.51890628  0.52172006     0.02600
N932        N  0.22970678  0.52666854  0.48639482    -0.81100
H933        H  0.23457867  0.50026613  0.46166684     0.18000
C934        C  0.25576782  0.53562322  0.51926187    -0.26000
C935        C  0.25604160  0.54875058  0.53332193     0.36100
C936        C  0.24706206  0.54521011  0.55051087    -0.20000
C937        C  0.23794281  0.52820457  0.55291403    -0.25200
C938        C  0.23753342  0.51509465  0.53861139     0.27400
H939        H  0.26285164  0.53849665  0.50629370     0.13200
N940        N  0.26546160  0.56582330  0.53002734    -0.82500
H941        H  0.23093095  0.52490257  0.56568888     0.18000
N942        N  0.22782499  0.49798690  0.54106812    -0.81100
H943        H  0.25947766  0.57217617  0.51850801     0.33700
H944        H  0.27927817  0.56291181  0.52681145     0.38200
H945        H  0.22189699  0.49723838  0.55429517     0.33600
H946        H  0.21688783  0.49782475  0.53165401     0.30300
H947        H  0.22479828  0.52769088  0.47283774     0.33600
H948        H  0.21809943  0.52675582  0.49510688     0.30300
H949        H  0.26251373  0.45256667  0.50887676     0.38200
H950        H  0.28204047  0.46320356  0.50147250     0.33700
C951        C  0.16680461  0.34306270  0.46674176    -0.20100
C952        C  0.17637017  0.34613063  0.44984275     0.36200
C953        C  0.18998078  0.35992575  0.44879155    -0.26000
C954        C  0.19437874  0.37063538  0.46424814     0.02600
C955        C  0.18503668  0.36747156  0.48119433     0.27400
C956        C  0.17140710  0.35365581  0.48229619    -0.25200
N957        N  0.17254090  0.33498643  0.43388561    -0.82600
H958        H  0.19708638  0.36249780  0.43578092     0.13200
C959        C  0.20757647  0.38618746  0.46205880     0.02600
N960        N  0.18944349  0.37834820  0.49717925    -0.81100
H961        H  0.16434362  0.35114692  0.49534041     0.18000
C962        C  0.20081695  0.40407106  0.46436547    -0.26000
C963        C  0.21231520  0.41941200  0.46193270     0.36100
C964        C  0.23131519  0.41683920  0.45759013    -0.20000
C965        C  0.23802223  0.39894013  0.45476293    -0.25200
C966        C  0.22631397  0.38352805  0.45699828     0.27400
H967        H  0.18630855  0.40606265  0.46768835     0.13200
N968        N  0.20459380  0.43762666  0.46328434    -0.82500
H969        H  0.25245467  0.39699666  0.45111712     0.18000
N970        N  0.23337505  0.36522642  0.45434083    -0.81100
H971        H  0.19050798  0.43707832  0.46663033     0.33700
H972        H  0.20556111  0.44372961  0.45018493     0.38200
H973        H  0.24736956  0.36564662  0.45060360     0.33600
H974        H  0.23261184  0.35841016  0.46709417     0.30300
H975        H  0.18128314  0.37440835  0.50852091     0.33600
H976        H  0.20316289  0.37551004  0.50070421     0.30300
H977        H  0.17671068  0.32153252  0.43694077     0.38200
H978        H  0.18051722  0.33924233  0.42253302     0.33700
C979        C  0.15835722  0.68010669  0.55691206    -0.20100
C980        C  0.16806450  0.67764448  0.57377070     0.36200
C981        C  0.18165341  0.66377048  0.57516299    -0.26000
C982        C  0.18610435  0.65241986  0.56009960     0.02600
C983        C  0.17649280  0.65483256  0.54327586     0.27400
C984        C  0.16275893  0.66856907  0.54188680    -0.25200
N985        N  0.16432928  0.68930398  0.58941284    -0.82600
H986        H  0.18883819  0.66175326  0.58814333     0.13200
C987        C  0.20004696  0.63737749  0.56251812     0.02600
N988        N  0.18082262  0.64340022  0.52760841    -0.81100
H989        H  0.15560864  0.67041208  0.52886624     0.18000
C990        C  0.19441957  0.61914704  0.55992513    -0.26000
C991        C  0.20658079  0.60435455  0.56286120     0.36100
C992        C  0.22521098  0.60778616  0.56799095    -0.20000
C993        C  0.23080984  0.62603095  0.57092398    -0.25200
C994        C  0.21842906  0.64087794  0.56818135     0.27400
H995        H  0.18020984  0.61641615  0.55610077     0.13200
N996        N  0.19982017  0.58580096  0.56130798    -0.82500
H997        H  0.24492745  0.62870189  0.57509166     0.18000
N998        N  0.22448071  0.65949565  0.57094248    -0.81100
H999        H  0.18592934  0.58567117  0.55736060     0.33700
H1000       H  0.20038856  0.57979906  0.57447468     0.38200
H1001       H  0.23829859  0.65974726  0.57514049     0.33600
H1002       H  0.22395742  0.66620827  0.55812812     0.30300
H1003       H  0.17248295  0.64683128  0.51631963     0.33600
H1004       H  0.19445958  0.64622075  0.52363738     0.30300
H1005       H  0.16907184  0.70249273  0.58604956     0.38200
H1006       H  0.17197406  0.68506328  0.60091766     0.33700
C1007       C  0.23128560  0.45503469  0.41330459    -0.20100
C1008       C  0.22080362  0.43960525  0.40768006     0.36200
C1009       C  0.20792023  0.44131436  0.39325758    -0.26000
C1010       C  0.20510491  0.45815401  0.38420331     0.02600
C1011       C  0.21615584  0.47337239  0.38900705     0.27400
C1012       C  0.22906645  0.47168031  0.40348263    -0.25200
N1013       N  0.22243384  0.42231796  0.41701941    -0.82600
H1014       H  0.19958966  0.42951083  0.38951811     0.13200
C1015       C  0.19029967  0.45973412  0.36998777     0.02600
N1016       N  0.21410475  0.49051327  0.37923990    -0.81100
H1017       H  0.23722719  0.48354992  0.40734985     0.18000
C1018       C  0.17521600  0.47156826  0.37310891    -0.26000
C1019       C  0.16110577  0.47365338  0.35984484     0.36100
C1020       C  0.16217834  0.46378176  0.34303755    -0.20000
C1021       C  0.17694749  0.45145014  0.34027146    -0.25200
C1022       C  0.19106913  0.44944300  0.35347667     0.27400
H1023       H  0.17448059  0.47920301  0.38596795     0.13200
N1024       N  0.14571130  0.48569226  0.36341027    -0.82500
H1025       H  0.17791628  0.44390411  0.32737490     0.18000
N1026       N  0.20645103  0.43735580  0.34998458    -0.81100
H1027       H  0.14702228  0.49192518  0.37637367     0.33700
H1028       H  0.13379459  0.47755572  0.36406749     0.38200
H1029       H  0.20496966  0.43078351  0.33721448     0.33600
H1030       H  0.21835383  0.44547900  0.34896578     0.30300
H1031       H  0.22319642  0.50038097  0.38445129     0.33600
H1032       H  0.21799424  0.48825674  0.36545156     0.30300
H1033       H  0.20936263  0.41865930  0.42209709     0.38200
H1034       H  0.22643070  0.41242311  0.40729871     0.33700
C1035       C  0.15653752  0.55996675  0.68383454    -0.20100
C1036       C  0.15831480  0.54760806  0.66883720     0.36200
C1037       C  0.17239945  0.55038670  0.65550651    -0.26000
C1038       C  0.18491852  0.56512066  0.65691690     0.02600
C1039       C  0.18293559  0.57762112  0.67172971     0.27400
C1040       C  0.16865421  0.57505487  0.68484334    -0.25200
N1041       N  0.14591865  0.53224065  0.66723769    -0.82600
H1042       H  0.17371078  0.54094286  0.64397904     0.13200
C1043       C  0.20000276  0.56725960  0.64279341     0.02600
N1044       N  0.19580621  0.59254882  0.67373344    -0.81100
H1045       H  0.16754974  0.58443722  0.69644010     0.18000
C1046       C  0.20152335  0.58371463  0.63268766    -0.26000
C1047       C  0.21474374  0.58577801  0.61845790     0.36100
C1048       C  0.22659286  0.57098470  0.61378655    -0.20000
C1049       C  0.22568444  0.55484912  0.62460457    -0.25200
C1050       C  0.21270351  0.55292494  0.63914989     0.27400
H1051       H  0.19200279  0.59491233  0.63549211     0.13200
N1052       N  0.21542621  0.60272022  0.60837695    -0.82500
H1053       H  0.23496260  0.54354261  0.62146904     0.18000
N1054       N  0.21229725  0.53643741  0.65019445    -0.81100
H1055       H  0.21830925  0.61328907  0.61772526     0.33700
H1056       H  0.20231988  0.60518823  0.60284570     0.38200
H1057       H  0.22254328  0.52724328  0.64580247     0.33600
H1058       H  0.21557876  0.54012134  0.66378047     0.30300
H1059       H  0.19250961  0.60045451  0.68537740     0.33600
H1060       H  0.20885440  0.58682813  0.67614750     0.30300
H1061       H  0.13262532  0.53751296  0.66515963     0.38200
H1062       H  0.14917388  0.52440919  0.65552841     0.33700
C1063       C  0.46939217  0.52588156  0.75476762    -0.20100
C1064       C  0.46686939  0.50810876  0.74706358     0.36200
C1065       C  0.48056861  0.49450884  0.74895453    -0.26000
C1066       C  0.49692368  0.49791694  0.75868216     0.02600
C1067       C  0.49942644  0.51534919  0.76689016     0.27400
C1068       C  0.48584425  0.52913016  0.76470181    -0.25200
N1069       N  0.45035928  0.50380835  0.73707485    -0.82600
H1070       H  0.47850630  0.48124386  0.74245876     0.13200
C1071       C  0.51166534  0.48346174  0.75941175     0.02600
N1072       N  0.51577825  0.51897602  0.77753041    -0.81100
H1073       H  0.48846218  0.54228501  0.77094972     0.18000
C1074       C  0.52961413  0.48785390  0.75327476    -0.26000
C1075       C  0.54390521  0.47470214  0.75340268     0.36100
C1076       C  0.54023406  0.45669934  0.75979751    -0.20000
C1077       C  0.52223763  0.45209075  0.76551508    -0.25200
C1078       C  0.50795367  0.46533869  0.76562111     0.27400
H1079       H  0.53241903  0.50158087  0.74807954     0.13200
N1080       N  0.56206309  0.47944486  0.74669723    -0.82500
H1081       H  0.51942649  0.43821334  0.77027213     0.18000
N1082       N  0.48978889  0.46053447  0.77223718    -0.81100
H1083       H  0.56249998  0.49321627  0.74249031     0.33700
H1084       H  0.56469573  0.47151909  0.73489384     0.38200
H1085       H  0.48934688  0.44669820  0.77625293     0.33600
H1086       H  0.48717585  0.46829252  0.78414478     0.30300
H1087       H  0.51565832  0.53243842  0.78261025     0.33600
H1088       H  0.51550708  0.51024909  0.78906915     0.30300
H1089       H  0.45414210  0.49981879  0.72367215     0.38200
H1090       H  0.44396988  0.49259902  0.74358315     0.33700
C1091       C  0.24500447  0.54864695  0.82899041    -0.20100
C1092       C  0.23771470  0.53393283  0.81855264     0.36200
C1093       C  0.22383107  0.53751910  0.80555642    -0.26000
C1094       C  0.21763053  0.55550641  0.80210754     0.02600
C1095       C  0.22533275  0.57027798  0.81203228     0.27400
C1096       C  0.23869118  0.56665237  0.82561411    -0.25200
N1097       N  0.24406833  0.51537598  0.82137088    -0.82600
H1098       H  0.21773195  0.52615895  0.79805688     0.13200
C1099       C  0.20263651  0.55828030  0.78843856     0.02600
N1100       N  0.21969797  0.58886711  0.80815694    -0.81100
H1101       H  0.24437614  0.57800598  0.83343624     0.18000
C1102       C  0.18626283  0.56727044  0.79382127    -0.26000
C1103       C  0.17078737  0.56770051  0.78210569     0.36100
C1104       C  0.17156928  0.55821507  0.76504553    -0.20000
C1105       C  0.18831581  0.55023950  0.75927666    -0.25200
C1106       C  0.20394874  0.55050604  0.77061532     0.27400
H1107       H  0.18532711  0.57338988  0.80746497     0.13200
N1108       N  0.15416340  0.57700277  0.78785367    -0.82500
H1109       H  0.18916774  0.54352411  0.74591202     0.18000
N1110       N  0.22108914  0.54259890  0.76427326    -0.81100
H1111       H  0.15574761  0.58259067  0.80108382     0.33700
H1112       H  0.15226656  0.58817551  0.77890213     0.38200
H1113       H  0.21970046  0.53735390  0.75087937     0.33600
H1114       H  0.23080781  0.55322474  0.76344304     0.30300
H1115       H  0.22667390  0.59811832  0.81670443     0.33600
H1116       H  0.22374420  0.59190882  0.79455954     0.30300
H1117       H  0.25765469  0.51465689  0.81636836     0.38200
H1118       H  0.23643387  0.50615207  0.81337313     0.33700
C1119       C  0.40468615  0.54651019  0.77004439    -0.20100
C1120       C  0.38670890  0.55016427  0.76341694     0.36200
C1121       C  0.37152122  0.54983039  0.77590428    -0.26000
C1122       C  0.37407346  0.54609045  0.79487867     0.02600
C1123       C  0.39212712  0.54313424  0.80150196     0.27400
C1124       C  0.40711880  0.54317683  0.78907171    -0.25200
N1125       N  0.38393459  0.55400959  0.74409555    -0.82600
H1126       H  0.35765869  0.55228553  0.77083040     0.13200
C1127       C  0.35801340  0.54511205  0.80798448     0.02600
N1128       N  0.39517956  0.54037824  0.82097905    -0.81100
H1129       H  0.42094232  0.54109335  0.79440615     0.18000
C1130       C  0.35479478  0.52871727  0.81783591    -0.26000
C1131       C  0.34094274  0.52749633  0.83161487     0.36100
C1132       C  0.32993631  0.54311974  0.83575268    -0.20000
C1133       C  0.33307770  0.55947637  0.82566095    -0.25200
C1134       C  0.34701491  0.56065620  0.81193471     0.27400
H1135       H  0.36330012  0.51679335  0.81480663     0.13200
N1136       N  0.33815931  0.51044090  0.84137758    -0.82500
H1137       H  0.32467480  0.57149480  0.82855091     0.18000
N1138       N  0.35026870  0.57767251  0.80224965    -0.81100
H1139       H  0.34803355  0.50069150  0.83734028     0.33700
H1140       H  0.32534645  0.50519112  0.83733488     0.38200
H1141       H  0.34099884  0.58779866  0.80673686     0.33600
H1142       H  0.36350106  0.58224843  0.80577086     0.30300
H1143       H  0.40923631  0.53836556  0.82364711     0.33600
H1144       H  0.39135177  0.55251046  0.82776891     0.30300
H1145       H  0.38769286  0.54224308  0.73665859     0.38200
H1146       H  0.36992613  0.55637970  0.74144761     0.33700
C1147       C  0.67108113  0.45301107  0.84666504    -0.20100
C1148       C  0.65373836  0.46196617  0.84563187     0.36200
C1149       C  0.64181857  0.45814540  0.83065408    -0.26000
C1150       C  0.64691008  0.44566069  0.81665462     0.02600
C1151       C  0.66445876  0.43729234  0.81742201     0.27400
C1152       C  0.67621646  0.44083905  0.83240535    -0.25200
N1153       N  0.64816766  0.47465718  0.85984529    -0.82600
H1154       H  0.62833131  0.46463797  0.83007592     0.13200
C1155       C  0.63339519  0.44083806  0.80185884     0.02600
N1156       N  0.67053760  0.42540766  0.80279840    -0.81100
H1157       H  0.68967605  0.43425629  0.83265735     0.18000
C1158       C  0.62693929  0.45436851  0.78955922    -0.26000
C1159       C  0.61289372  0.45045799  0.77657947     0.36100
C1160       C  0.60428511  0.43289300  0.77659750    -0.20000
C1161       C  0.61254826  0.41892384  0.78746021    -0.25200
C1162       C  0.62654237  0.42281807  0.80024745     0.27400
H1163       H  0.63277626  0.46807901  0.79021388     0.13200
N1164       N  0.60707831  0.46440213  0.76370645    -0.82500
H1165       H  0.60818488  0.40477090  0.78644104     0.18000
N1166       N  0.63323840  0.40849339  0.81213884    -0.81100
H1167       H  0.61458457  0.47652937  0.76564510     0.33700
H1168       H  0.61031302  0.45975036  0.75038330     0.38200
H1169       H  0.62202202  0.40323516  0.81967254     0.33600
H1170       H  0.63849227  0.39792972  0.80381477     0.30300
H1171       H  0.68266454  0.43093528  0.79711411     0.33600
H1172       H  0.67380102  0.41261243  0.80858678     0.30300
H1173       H  0.64682095  0.46721356  0.87219256     0.38200
H1174       H  0.63510703  0.48012288  0.85695409     0.33700
C1175       C  0.53210047  0.31963416  0.83382846    -0.20100
C1176       C  0.54073165  0.33631042  0.83902656     0.36200
C1177       C  0.54102868  0.35123517  0.82647038    -0.26000
C1178       C  0.53339176  0.34970765  0.80868080     0.02600
C1179       C  0.52468303  0.33318708  0.80356139     0.27400
C1180       C  0.52398533  0.31844514  0.81618745    -0.25200
N1181       N  0.54926429  0.33808326  0.85686738    -0.82600
H1182       H  0.54793858  0.36389424  0.83027381     0.13200
C1183       C  0.53620933  0.36483678  0.79498959     0.02600
N1184       N  0.51682158  0.33137394  0.78541313    -0.81100
H1185       H  0.51742155  0.30573938  0.81197840     0.18000
C1186       C  0.54709307  0.36142553  0.77919929    -0.26000
C1187       C  0.55269035  0.37586492  0.76744846     0.36100
C1188       C  0.54706736  0.39402500  0.77138886    -0.20000
C1189       C  0.53496630  0.39724650  0.78631036    -0.25200
C1190       C  0.52950868  0.38280210  0.79821650     0.27400
H1191       H  0.55223588  0.34762746  0.77672615     0.13200
N1192       N  0.56539893  0.37246828  0.75244900    -0.82500
H1193       H  0.53111127  0.41127578  0.78963003     0.18000
N1194       N  0.51791322  0.38640875  0.81403374    -0.81100
H1195       H  0.56860981  0.35846013  0.75163039     0.33700
H1196       H  0.55866610  0.37591568  0.74014303     0.38200
H1197       H  0.51433270  0.40034822  0.81455599     0.33600
H1198       H  0.50559990  0.37910738  0.81223628     0.30300
H1199       H  0.51110152  0.31828368  0.78369080     0.33600
H1200       H  0.50591339  0.34078355  0.78443871     0.30300
H1201       H  0.56104615  0.32972591  0.85685817     0.38200
H1202       H  0.55398148  0.35153375  0.85884459     0.33700
C1203       C  0.44243128  0.66286397  0.83579599    -0.20100
C1204       C  0.42707853  0.66060167  0.82389679     0.36200
C1205       C  0.42638765  0.64536900  0.81182034    -0.26000
C1206       C  0.44077035  0.63238077  0.81106923     0.02600
C1207       C  0.45581192  0.63429044  0.82335459     0.27400
C1208       C  0.45655453  0.64953400  0.83541619    -0.25200
N1209       N  0.41259550  0.67416759  0.82346267    -0.82600
H1210       H  0.41491882  0.64407153  0.80232040     0.13200
C1211       C  0.44052551  0.61758539  0.79659744     0.02600
N1212       N  0.47035110  0.62077094  0.82344572    -0.81100
H1213       H  0.46834735  0.65109981  0.84446915     0.18000
C1214       C  0.45566236  0.61587493  0.78438232    -0.26000
C1215       C  0.45639852  0.60186321  0.77092663     0.36100
C1216       C  0.44162241  0.58928259  0.76945324    -0.20000
C1217       C  0.42601139  0.59161963  0.78091429    -0.25200
C1218       C  0.42539652  0.60541899  0.79462757     0.27400
H1219       H  0.46705141  0.62549265  0.78543937     0.13200
N1220       N  0.47215734  0.60027161  0.75880077    -0.82500
H1221       H  0.41461036  0.58206958  0.77985610     0.18000
N1222       N  0.40973643  0.60670545  0.80693068    -0.81100
H1223       H  0.48185674  0.61053189  0.76165804     0.33700
H1224       H  0.46757170  0.60259602  0.74528340     0.38200
H1225       H  0.39982124  0.59677087  0.80364758     0.33600
H1226       H  0.41434013  0.60363169  0.82028550     0.30300
H1227       H  0.48044667  0.62418241  0.83316506     0.33600
H1228       H  0.46455989  0.60828634  0.82776931     0.30300
H1229       H  0.41826966  0.68629055  0.81805442     0.38200
H1230       H  0.40213933  0.67021837  0.81434783     0.33700
C1231       C  0.03640572  0.75790747  0.04000311    -0.20100
C1232       C  0.01881149  0.76557134  0.04415676     0.36200
C1233       C  0.00471027  0.76516890  0.03101567    -0.26000
C1234       C  0.00747445  0.75701248  0.01369999     0.02600
C1235       C  0.02483932  0.74938950  0.00925095     0.27400
C1236       C  0.03919744  0.75008289  0.02232101    -0.25200
N1237       N  0.01515640  0.77379103  0.06184451    -0.82600
H1238       H  0.99137685  0.77114783  0.03444375     0.13200
C1239       C  0.99170314  0.75613245  0.00074534     0.02600
N1240       N  0.02772335  0.74074292  0.99157463    -0.81100
H1241       H  0.05239420  0.74439858  0.01838054     0.18000
C1242       C  0.99281319  0.76489739  0.98349444    -0.26000
C1243       C  0.97744434  0.76557847  0.97172226     0.36100
C1244       C  0.96035348  0.75764906  0.97733508    -0.20000
C1245       C  0.95980324  0.74805939  0.99437017    -0.25200
C1246       C  0.97524637  0.74718719  0.00599798     0.27400
H1247       H  0.00555233  0.77162952  0.97931508     0.13200
N1248       N  0.97916818  0.77467386  0.95415537    -0.82500
H1249       H  0.94753283  0.74116322  0.99911492     0.18000
N1250       N  0.97427861  0.73733465  0.02329341    -0.81100
H1251       H  0.98322526  0.78827580  0.95650515     0.33700
H1252       H  0.98967749  0.76815518  0.94661614     0.38200
H1253       H  0.96116050  0.73157478  0.02528759     0.33600
H1254       H  0.98360769  0.72635879  0.02250280     0.30300
H1255       H  0.04126595  0.73580194  0.99040007     0.33600
H1256       H  0.01903682  0.72925726  0.99099450     0.30300
H1257       H  0.01116007  0.78745897  0.05968313     0.38200
H1258       H  0.00405712  0.76681691  0.06800881     0.33700
C1259       C  0.75935559  0.59850637  0.94768805    -0.20100
C1260       C  0.74329571  0.59752532  0.93655250     0.36200
C1261       C  0.73817207  0.58061531  0.92870000    -0.26000
C1262       C  0.74821809  0.56447404  0.93219513     0.02600
C1263       C  0.76427461  0.56541363  0.94321670     0.27400
C1264       C  0.76975364  0.58242577  0.95066741    -0.25200
N1265       N  0.73198551  0.61352910  0.93346963    -0.82600
H1266       H  0.72603603  0.57994488  0.91998826     0.13200
C1267       C  0.74176135  0.54678481  0.92404752     0.02600
N1268       N  0.77475930  0.54903928  0.94709661    -0.81100
H1269       H  0.78199233  0.58301351  0.95923607     0.18000
C1270       C  0.75394350  0.53649507  0.91299793    -0.26000
C1271       C  0.74831025  0.52002863  0.90456705     0.36100
C1272       C  0.72999409  0.51358956  0.90727273    -0.20000
C1273       C  0.71772804  0.52399717  0.91818403    -0.25200
C1274       C  0.72344763  0.54043664  0.92671665     0.27400
H1275       H  0.76786178  0.54154824  0.91063733     0.13200
N1276       N  0.76108754  0.51003471  0.89301364    -0.82500
H1277       H  0.70371975  0.51911630  0.92034959     0.18000
N1278       N  0.71079500  0.55061375  0.93823687    -0.81100
H1279       H  0.77404264  0.51642536  0.89279960     0.33700
H1280       H  0.75610487  0.51059572  0.87945258     0.38200
H1281       H  0.69786934  0.54417347  0.93870903     0.33600
H1282       H  0.71595911  0.55038237  0.95173276     0.30300
H1283       H  0.78621971  0.55209558  0.95530587     0.33600
H1284       H  0.76631665  0.54025297  0.95491222     0.30300
H1285       H  0.72557140  0.61678330  0.94606420     0.38200
H1286       H  0.72129911  0.61059289  0.92423636     0.33700
C1287       C  0.81978784  0.67674022  0.97279273    -0.20100
C1288       C  0.83165501  0.67627853  0.95709142     0.36200
C1289       C  0.84608152  0.68925248  0.95545776    -0.26000
C1290       C  0.84864772  0.70300116  0.96881848     0.02600
C1291       C  0.83689048  0.70351800  0.98442814     0.27400
C1292       C  0.82269942  0.69036861  0.98630223    -0.25200
N1293       N  0.82908110  0.66277843  0.94281428    -0.82600
H1294       H  0.85523843  0.68885996  0.94352152     0.13200
C1295       C  0.86423670  0.71625192  0.96666485     0.02600
N1296       N  0.83945495  0.71738129  0.99834813    -0.81100
H1297       H  0.81366214  0.69098353  0.99830882     0.18000
C1298       C  0.86074085  0.73512935  0.96390321    -0.26000
C1299       C  0.87540075  0.74780850  0.96186864     0.36100
C1300       C  0.89380441  0.74156956  0.96260867    -0.20000
C1301       C  0.89719114  0.72266858  0.96533176    -0.25200
C1302       C  0.88266761  0.71002710  0.96752313     0.27400
H1303       H  0.84658881  0.74002082  0.96335150     0.13200
N1304       N  0.87157047  0.76700129  0.95952087    -0.82500
H1305       H  0.91132653  0.71770756  0.96572550     0.18000
N1306       N  0.88654736  0.69088196  0.97081313    -0.81100
H1307       H  0.86371257  0.77138821  0.97089264     0.33700
H1308       H  0.86351563  0.76856729  0.94764305     0.38200
H1309       H  0.90081909  0.68852880  0.97099613     0.33600
H1310       H  0.88158825  0.68761659  0.98405573     0.30300
H1311       H  0.82956069  0.71600411  0.00888711     0.33600
H1312       H  0.85234087  0.71509887  0.00444402     0.30300
H1313       H  0.81686180  0.66611319  0.93588831     0.38200
H1314       H  0.83965623  0.66366789  0.93290495     0.33700
C1315       C  0.99694607  0.62392789  0.77817814    -0.20100
C1316       C  0.00679512  0.61145594  0.78952649     0.36200
C1317       C  0.02338852  0.60365640  0.78294882    -0.26000
C1318       C  0.03023709  0.60778948  0.76520713     0.02600
C1319       C  0.02045785  0.62018424  0.75383579     0.27400
C1320       C  0.00389424  0.62806928  0.76039856    -0.25200
N1321       N  0.99980766  0.60644925  0.80752972    -0.82600
H1322       H  0.03084512  0.59394284  0.79154166     0.13200
C1323       C  0.04736071  0.59852943  0.75853404     0.02600
N1324       N  0.02746651  0.62477072  0.73572359    -0.81100
H1325       H  0.99644891  0.63760749  0.75160483     0.18000
C1326       C  0.04648020  0.58692284  0.74307043    -0.26000
C1327       C  0.06214956  0.57718885  0.73680465     0.36100
C1328       C  0.07923506  0.57944614  0.74599441    -0.20000
C1329       C  0.08003228  0.59112978  0.76149143    -0.25200
C1330       C  0.06430138  0.60068134  0.76783832     0.27400
H1331       H  0.03334353  0.58508896  0.73615927     0.13200
N1332       N  0.06058624  0.56473378  0.72145558    -0.82500
H1333       H  0.09301104  0.59285442  0.76871203     0.18000
N1334       N  0.06544220  0.61258525  0.78367195    -0.81100
H1335       H  0.04720848  0.56505518  0.71602798     0.33700
H1336       H  0.06257958  0.55140449  0.72657692     0.38200
H1337       H  0.07884951  0.61257044  0.78903232     0.33600
H1338       H  0.06279064  0.62600838  0.77914799     0.30300
H1339       H  0.01861673  0.63402480  0.72906757     0.33600
H1340       H  0.04006944  0.63158760  0.73746341     0.30300
H1341       H  0.98757731  0.59904199  0.80557302     0.38200
H1342       H  0.00896239  0.59753345  0.81423395     0.33700
C1343       C  0.94325031  0.68065347  0.84160907    -0.20100
C1344       C  0.94714611  0.69953027  0.83875237     0.36200
C1345       C  0.94371497  0.71219209  0.85304865    -0.26000
C1346       C  0.93665977  0.70651447  0.87028716     0.02600
C1347       C  0.93263532  0.68764810  0.87311938     0.27400
C1348       C  0.93575905  0.67495643  0.85865865    -0.25200
N1349       N  0.95414692  0.70589005  0.82116722    -0.82600
H1350       H  0.94650453  0.72666716  0.85071353     0.13200
C1351       C  0.93438232  0.72040991  0.88539400     0.02600
N1352       N  0.92563963  0.68141213  0.89072473    -0.81100
H1353       H  0.93260108  0.66052537  0.86078667     0.18000
C1354       C  0.91728694  0.72241564  0.89457897    -0.26000
C1355       C  0.91526384  0.73438153  0.90980697     0.36100
C1356       C  0.93053360  0.74480129  0.91593138    -0.20000
C1357       C  0.94718561  0.74376391  0.90579128    -0.25200
C1358       C  0.94938566  0.73153875  0.89088304     0.27400
H1359       H  0.90554761  0.71426829  0.89022295     0.13200
N1360       N  0.89792329  0.73517650  0.91942411    -0.82500
H1361       H  0.95891917  0.75192262  0.91013838     0.18000
N1362       N  0.96705740  0.72987957  0.88177072    -0.81100
H1363       H  0.89459370  0.72189074  0.92392448     0.33700
H1364       H  0.88780705  0.73936972  0.91001605     0.38200
H1365       H  0.97661717  0.73905740  0.88741523     0.33600
H1366       H  0.97208351  0.71663621  0.88439201     0.30300
H1367       H  0.92334831  0.66720403  0.89052187     0.33600
H1368       H  0.93589991  0.68376235  0.90058430     0.30300
H1369       H  0.94387028  0.70364819  0.81129051     0.38200
H1370       H  0.95647772  0.72008909  0.82142748     0.33700
C1371       C  0.23502739  0.61310252  0.99710651    -0.20100
C1372       C  0.22891999  0.59626891  0.98947648     0.36200
C1373       C  0.23883258  0.58838020  0.97458644    -0.26000
C1374       C  0.25438103  0.59715862  0.96684715     0.02600
C1375       C  0.26006696  0.61424561  0.97401391     0.27400
C1376       C  0.25041628  0.62196461  0.98906882    -0.25200
N1377       N  0.21299826  0.58702533  0.99704222    -0.82600
H1378       H  0.23427573  0.57542313  0.96878372     0.13200
C1379       C  0.26395433  0.58876051  0.95060777     0.02600
N1380       N  0.27575919  0.62359463  0.96608574    -0.81100
H1381       H  0.25510468  0.63495007  0.99469454     0.18000
C1382       C  0.26390653  0.59816636  0.93364315    -0.26000
C1383       C  0.27122161  0.59010067  0.91750207     0.36100
C1384       C  0.27851582  0.57202768  0.91823270    -0.20000
C1385       C  0.27963580  0.56307956  0.93550397    -0.25200
C1386       C  0.27248499  0.57131699  0.95171896     0.27400
H1387       H  0.25761835  0.61169235  0.93289445     0.13200
N1388       N  0.27081893  0.60005859  0.90027464    -0.82500
H1389       H  0.28534549  0.54930543  0.93623799     0.18000
N1390       N  0.27353161  0.56194357  0.96924189    -0.81100
H1391       H  0.28453003  0.60236751  0.89620081     0.33700
H1392       H  0.26477242  0.61301697  0.90206471     0.38200
H1393       H  0.28017157  0.54924155  0.96772245     0.33600
H1394       H  0.28184698  0.56986878  0.97793708     0.30300
H1395       H  0.27805536  0.63610385  0.97282073     0.33600
H1396       H  0.28742429  0.61542017  0.96844800     0.30300
H1397       H  0.20143052  0.59514051  0.99407780     0.38200
H1398       H  0.21089645  0.57445479  0.99035600     0.33700
C1399       C  0.16587324  0.66606755  0.05273141    -0.20100
C1400       C  0.15982497  0.67756260  0.03805122     0.36200
C1401       C  0.14699791  0.69174453  0.04165355    -0.26000
C1402       C  0.13981044  0.69464256  0.05947974     0.02600
C1403       C  0.14542698  0.68299821  0.07406068     0.27400
C1404       C  0.15842358  0.66890198  0.07056916    -0.25200
N1405       N  0.16706384  0.67521493  0.01961557    -0.82600
H1406       H  0.14246068  0.70057947  0.03044384     0.13200
C1407       C  0.12589813  0.70953355  0.06243303     0.02600
N1408       N  0.13811078  0.68573769  0.09240710    -0.81100
H1409       H  0.16304505  0.66033539  0.08194479     0.18000
C1410       C  0.10757460  0.70470577  0.06656066    -0.26000
C1411       C  0.09368733  0.71815857  0.06782275     0.36100
C1412       C  0.09812655  0.73694645  0.06539703    -0.20000
C1413       C  0.11654882  0.74189803  0.06180672    -0.25200
C1414       C  0.13049793  0.72833002  0.06018570     0.27400
H1415       H  0.10390447  0.69032807  0.06819033     0.13200
N1416       N  0.07493122  0.71265052  0.07115987    -0.82500
H1417       H  0.11992246  0.75627741  0.05966607     0.18000
N1418       N  0.14924059  0.73348741  0.05595051    -0.81100
H1419       H  0.07446695  0.70521711  0.08357396     0.33700
H1420       H  0.07096971  0.70381834  0.06049002     0.38200
H1421       H  0.15033074  0.74777693  0.05458486     0.33600
H1422       H  0.15739795  0.72974104  0.06726453     0.30300
H1423       H  0.14360458  0.67605035  0.10159160     0.33600
H1424       H  0.14253879  0.69865674  0.09693749     0.30300
H1425       H  0.16213728  0.66263567  0.01467098     0.38200
H1426       H  0.16189271  0.68533802  0.01071745     0.33700
C1427       C  0.06084755  0.60131228  0.24004806    -0.20100
C1428       C  0.05823056  0.58331343  0.23308439     0.36200
C1429       C  0.06739992  0.56843582  0.24155584    -0.26000
C1430       C  0.07910563  0.57117022  0.25673527     0.02600
C1431       C  0.08192891  0.58909427  0.26350475     0.27400
C1432       C  0.07291965  0.60395589  0.25501161    -0.25200
N1433       N  0.04600700  0.58008278  0.21780040    -0.82600
H1434       H  0.06541443  0.55460978  0.23633599     0.13200
C1435       C  0.08843120  0.55517952  0.26543765     0.02600
N1436       N  0.09360787  0.59206036  0.27927498    -0.81100
H1437       H  0.07494686  0.61765439  0.26052956     0.18000
C1438       C  0.10781430  0.55449736  0.26557825    -0.26000
C1439       C  0.11723015  0.53957996  0.27360151     0.36100
C1440       C  0.10699023  0.52495348  0.28153114    -0.20000
C1441       C  0.08757645  0.52587189  0.28174239    -0.25200
C1442       C  0.07818278  0.54083681  0.27374894     0.27400
H1443       H  0.11560959  0.56562488  0.25926337     0.13200
N1444       N  0.13711771  0.53923938  0.27368361    -0.82500
H1445       H  0.07968322  0.51462833  0.28770615     0.18000
N1446       N  0.05830201  0.54150981  0.27394984    -0.81100
H1447       H  0.14248662  0.55094805  0.26714111     0.33700
H1448       H  0.14133716  0.53984504  0.28749736     0.38200
H1449       H  0.05284771  0.52981557  0.28044317     0.33600
H1450       H  0.05433422  0.55279322  0.28201351     0.30300
H1451       H  0.09427077  0.60606196  0.28251654     0.33600
H1452       H  0.08743256  0.58550925  0.29064455     0.30300
H1453       H  0.05194914  0.58620900  0.20607731     0.38200
H1454       H  0.04509168  0.56600735  0.21495370     0.33700
C1455       C  0.03452227  0.67667966  0.17833892    -0.20100
C1456       C  0.02615402  0.69429065  0.17788050     0.36200
C1457       C  0.03105043  0.70678638  0.16381255    -0.26000
C1458       C  0.04354705  0.70198474  0.14967939     0.02600
C1459       C  0.05188689  0.68436268  0.15007168     0.27400
C1460       C  0.04750949  0.67204448  0.16456433    -0.25200
N1461       N  0.01324192  0.69977127  0.19206708    -0.82600
H1462       H  0.02500874  0.72043912  0.16385226     0.13200
C1463       C  0.04739699  0.71551927  0.13450970     0.02600
N1464       N  0.06464141  0.67897460  0.13571617    -0.81100
H1465       H  0.05413552  0.65866735  0.16500783     0.18000
C1466       C  0.06571474  0.71999200  0.12975302    -0.26000
C1467       C  0.06977387  0.73197615  0.11493660     0.36100
C1468       C  0.05520629  0.74027823  0.10485392    -0.20000
C1469       C  0.03690278  0.73684574  0.11071199    -0.25200
C1470       C  0.03282646  0.72418177  0.12487683     0.27400
H1471       H  0.07703089  0.71383445  0.13735982     0.13200
N1472       N  0.08871968  0.73501833  0.10998875    -0.82500
H1473       H  0.02552662  0.74359036  0.10375214     0.18000
N1474       N  0.01388784  0.71967386  0.12910277    -0.81100
H1475       H  0.09538529  0.74074529  0.12141904     0.33700
H1476       H  0.09487218  0.72226635  0.10730092     0.38200
H1477       H  0.00483669  0.72726857  0.12080290     0.33600
H1478       H  0.01190055  0.70583168  0.12574052     0.30300
H1479       H  0.06964828  0.66568169  0.13813608     0.33600
H1480       H  0.05731471  0.67848448  0.12328474     0.30300
H1481       H  0.00113305  0.69217286  0.19014852     0.38200
H1482       H  0.00949658  0.71358493  0.19044284     0.33700
C1483       C  0.74333194  0.96109784  0.97676088    -0.20100
C1484       C  0.74965969  0.97936243  0.97378052     0.36200
C1485       C  0.75029380  0.99181625  0.98847030    -0.26000
C1486       C  0.74516094  0.98648465  0.00635649     0.02600
C1487       C  0.73886376  0.96846563  0.00968162     0.27400
C1488       C  0.73781794  0.95596777  0.99484883    -0.25200
N1489       N  0.75610557  0.98518330  0.95588169    -0.82600
H1490       H  0.75539587  0.00564226  0.98599849     0.13200
C1491       C  0.74797294  0.99966249  0.02159000     0.02600
N1492       N  0.73412158  0.96280206  0.02820504    -0.81100
H1493       H  0.73353606  0.94208512  0.99790484     0.18000
C1494       C  0.73283071  0.00886529  0.02932697    -0.26000
C1495       C  0.73537946  0.02257782  0.04272076     0.36100
C1496       C  0.75348380  0.02745392  0.04847225    -0.20000
C1497       C  0.76855745  0.01758841  0.04085679    -0.25200
C1498       C  0.76593291  0.00372263  0.02764562     0.27400
H1499       H  0.71897145  0.00559294  0.02473160     0.13200
N1500       N  0.71946923  0.03158923  0.05043516    -0.82500
H1501       H  0.78255246  0.02029823  0.04492232     0.18000
N1502       N  0.78147570  0.99373696  0.02020595    -0.81100
H1503       H  0.71105428  0.02157939  0.05662152     0.33700
H1504       H  0.71206362  0.03763304  0.03961419     0.38200
H1505       H  0.79385001  0.99839735  0.02595839     0.33600
H1506       H  0.78003370  0.97997468  0.02424464     0.30300
H1507       H  0.72972805  0.94909460  0.02836898     0.33600
H1508       H  0.74617497  0.96332555  0.03612572     0.30300
H1509       H  0.74823017  0.99653661  0.95175247     0.38200
H1510       H  0.76986622  0.98941700  0.95711183     0.33700
C1511       C  0.66121309  0.75014410  0.95234394    -0.20100
C1512       C  0.65719857  0.73110081  0.95305850     0.36200
C1513       C  0.67183709  0.71838913  0.95302472    -0.26000
C1514       C  0.69022337  0.72437552  0.95233397     0.02600
C1515       C  0.69424436  0.74323089  0.95057632     0.27400
C1516       C  0.67966222  0.75597579  0.95056877    -0.25200
N1517       N  0.63842335  0.72473971  0.95471133    -0.82600
H1518       H  0.66897499  0.70381183  0.95446684     0.13200
C1519       C  0.70512075  0.71108906  0.95605976     0.02600
N1520       N  0.71313556  0.74933172  0.94933732    -0.81100
H1521       H  0.68274490  0.77055153  0.94976070     0.18000
C1522       C  0.71497190  0.70317246  0.94135970    -0.26000
C1523       C  0.72960178  0.69085735  0.94474304     0.36100
C1524       C  0.73427883  0.68645589  0.96325483    -0.20000
C1525       C  0.72438308  0.69464925  0.97787391    -0.25200
C1526       C  0.70981361  0.70686102  0.97445845     0.27400
H1527       H  0.71125793  0.70668314  0.92726421     0.13200
N1528       N  0.73959292  0.68283762  0.92949305    -0.82500
H1529       H  0.72778069  0.69127684  0.99208082     0.18000
N1530       N  0.69955683  0.71483696  0.98958008    -0.81100
H1531       H  0.73402600  0.68714842  0.91686685     0.33700
H1532       H  0.75311260  0.68792214  0.92989373     0.38200
H1533       H  0.70454082  0.71003893  0.00227561     0.33600
H1534       H  0.70187778  0.72903564  0.98935504     0.30300
H1535       H  0.71371298  0.76363938  0.94788872     0.33600
H1536       H  0.71957475  0.74617715  0.96188428     0.30300
H1537       H  0.63345786  0.72878775  0.96771468     0.38200
H1538       H  0.63793269  0.71035889  0.95455240     0.33700
C1539       C  0.57498132  0.77711713  0.92871072    -0.20100
C1540       C  0.55674227  0.77801087  0.93588046     0.36200
C1541       C  0.54225417  0.76963572  0.92610342    -0.26000
C1542       C  0.54553820  0.76034736  0.90939024     0.02600
C1543       C  0.56356334  0.76007463  0.90183302     0.27400
C1544       C  0.57805387  0.76855321  0.91150566    -0.25200
N1545       N  0.55304046  0.78670471  0.95338183    -0.82600
H1546       H  0.52831741  0.77004620  0.93170809     0.13200
C1547       C  0.53005429  0.75044866  0.90033350     0.02600
N1548       N  0.56719043  0.75065746  0.88469416    -0.81100
H1549       H  0.59196779  0.76783615  0.90588577     0.18000
C1550       C  0.52501938  0.75510714  0.88218532    -0.26000
C1551       C  0.51013678  0.74632113  0.87339017     0.36100
C1552       C  0.49995310  0.73267546  0.88307057    -0.20000
C1553       C  0.50535838  0.72770710  0.90104637    -0.25200
C1554       C  0.52026573  0.73645419  0.90978328     0.27400
H1555       H  0.53260496  0.76582142  0.87495284     0.13200
N1556       N  0.50528656  0.75132610  0.85475611    -0.82500
H1557       H  0.49759287  0.71730579  0.90854238     0.18000
N1558       N  0.52542417  0.73129983  0.92829149    -0.81100
H1559       H  0.51396484  0.76175616  0.84977717     0.33700
H1560       H  0.50766371  0.73983335  0.84638154     0.38200
H1561       H  0.51672416  0.72094109  0.93338138     0.33600
H1562       H  0.53873434  0.72568803  0.92764734     0.30300
H1563       H  0.58115372  0.75177815  0.88100156     0.33600
H1564       H  0.56459795  0.73665918  0.88687985     0.30300
H1565       H  0.55537755  0.80080631  0.95166628     0.38200
H1566       H  0.53910031  0.78529028  0.95706635     0.33700
C1567       C  0.65008606  0.83668557  0.95261562    -0.20100
C1568       C  0.65313350  0.85034906  0.96614540     0.36200
C1569       C  0.66786867  0.86286933  0.96379795    -0.26000
C1570       C  0.67968219  0.86198679  0.94827077     0.02600
C1571       C  0.67629736  0.84861148  0.93461500     0.27400
C1572       C  0.66141297  0.83636895  0.93672275    -0.25200
N1573       N  0.64151485  0.85126492  0.98234572    -0.82600
H1574       H  0.67036899  0.87320164  0.97428530     0.13200
C1575       C  0.69601521  0.87451436  0.94711493     0.02600
N1576       N  0.68856799  0.84671038  0.91908776    -0.81100
H1577       H  0.65946427  0.82579764  0.92635170     0.18000
C1578       C  0.70874596  0.87476258  0.96173953    -0.26000
C1579       C  0.72358435  0.88733242  0.96192612     0.36100
C1580       C  0.72594232  0.89983733  0.94706591    -0.20000
C1581       C  0.71400007  0.89857688  0.93181404    -0.25200
C1582       C  0.69875183  0.88656099  0.93201200     0.27400
H1583       H  0.70684429  0.86535787  0.97326884     0.13200
N1584       N  0.73606825  0.88773640  0.97733937    -0.82500
H1585       H  0.71558523  0.90790705  0.92024181     0.18000
N1586       N  0.68545066  0.88747656  0.91740230    -0.81100
H1587       H  0.73242507  0.87775900  0.98715969     0.33700
H1588       H  0.74920880  0.88420626  0.97235287     0.38200
H1589       H  0.68020897  0.90089435  0.91691059     0.33600
H1590       H  0.69232482  0.88495329  0.90488414     0.30300
H1591       H  0.69409143  0.83340477  0.91934533     0.33600
H1592       H  0.68078007  0.84807612  0.90700260     0.30300
H1593       H  0.62814520  0.85454558  0.97795920     0.38200
H1594       H  0.64573196  0.86195009  0.99101933     0.33700
C1595       C  0.65898513  0.95828656  0.83887973    -0.20100
C1596       C  0.67410898  0.97033790  0.84180515     0.36200
C1597       C  0.68676947  0.96658070  0.85607823    -0.26000
C1598       C  0.68500955  0.95090118  0.86729558     0.02600
C1599       C  0.66997633  0.93886234  0.86447002     0.27400
C1600       C  0.65709946  0.94273166  0.85040658    -0.25200
N1601       N  0.67681137  0.98622668  0.83019358    -0.82600
H1602       H  0.69818269  0.97592835  0.85844702     0.13200
C1603       C  0.69846704  0.94783197  0.88257366     0.02600
N1604       N  0.66797528  0.92264755  0.87577439    -0.81100
H1605       H  0.64573899  0.93328839  0.84819340     0.18000
C1606       C  0.69183315  0.94727744  0.90081718    -0.26000
C1607       C  0.70390871  0.94544386  0.91585828     0.36100
C1608       C  0.72323982  0.94402802  0.91262385    -0.20000
C1609       C  0.72989503  0.94410293  0.89433433    -0.25200
C1610       C  0.71770479  0.94619799  0.87925028     0.27400
H1611       H  0.67710270  0.94864671  0.90334947     0.13200
N1612       N  0.69654689  0.94514110  0.93442619    -0.82500
H1613       H  0.74464890  0.94292415  0.89185995     0.18000
N1614       N  0.72475484  0.94678116  0.86060216    -0.81100
H1615       H  0.68215252  0.94652692  0.93435191     0.33700
H1616       H  0.69933944  0.93225019  0.94019109     0.38200
H1617       H  0.73917259  0.94556035  0.86052261     0.33600
H1618       H  0.71960383  0.93528991  0.85364821     0.30300
H1619       H  0.65620174  0.91523870  0.87198056     0.33600
H1620       H  0.67935127  0.91413128  0.87312344     0.30300
H1621       H  0.68079968  0.98150459  0.81709354     0.38200
H1622       H  0.68782611  0.99419350  0.83497754     0.33700
C1623       C  0.56429134  0.25269666  0.90886017    -0.20100
C1624       C  0.57420285  0.26432045  0.92092113     0.36200
C1625       C  0.58371348  0.25657432  0.93604024    -0.26000
C1626       C  0.58397816  0.23745057  0.93904850     0.02600
C1627       C  0.57459717  0.22582489  0.92665783     0.27400
C1628       C  0.56473201  0.23355578  0.91187146    -0.25200
N1629       N  0.57464009  0.28386726  0.91783259    -0.82600
H1630       H  0.59093377  0.26549569  0.94557854     0.13200
C1631       C  0.59388194  0.22972432  0.95534396     0.02600
N1632       N  0.57523366  0.20617848  0.92908398    -0.81100
H1633       H  0.55734901  0.22448170  0.90260848     0.18000
C1634       C  0.58422398  0.21849027  0.96796064    -0.26000
C1635       C  0.59294864  0.21101094  0.98364720     0.36100
C1636       C  0.61173365  0.21514914  0.98701140    -0.20000
C1637       C  0.62142634  0.22622440  0.97419603    -0.25200
C1638       C  0.61275633  0.23344266  0.95837950     0.27400
H1639       H  0.56968662  0.21574106  0.96566212     0.13200
N1640       N  0.58257552  0.19981173  0.99643633    -0.82500
H1641       H  0.63580993  0.22954745  0.97666913     0.18000
N1642       N  0.62301531  0.24459482  0.94543643    -0.81100
H1643       H  0.56876762  0.19880109  0.99232482     0.33700
H1644       H  0.58802656  0.18649359  0.99578202     0.38200
H1645       H  0.63669956  0.24617090  0.94976622     0.33600
H1646       H  0.62351687  0.23752679  0.93284576     0.30300
H1647       H  0.56753216  0.19956916  0.91885431     0.33600
H1648       H  0.58897289  0.20201341  0.92724706     0.30300
H1649       H  0.58185340  0.28617306  0.90544176     0.38200
H1650       H  0.58218850  0.29042070  0.92821107     0.33700
C1651       C  0.67021077  0.16232306  0.04685884    -0.20100
C1652       C  0.66485787  0.14420813  0.05159007     0.36200
C1653       C  0.67858845  0.13088952  0.05549418    -0.26000
C1654       C  0.69753614  0.13538007  0.05507917     0.02600
C1655       C  0.70280260  0.15356270  0.05070679     0.27400
C1656       C  0.68916353  0.16668584  0.04632772    -0.25200
N1657       N  0.64559740  0.13935303  0.05226595    -0.82600
H1658       H  0.67452391  0.11691464  0.05884470     0.13200
C1659       C  0.71174939  0.12100952  0.05934507     0.02600
N1660       N  0.72198674  0.15874128  0.05117636    -0.81100
H1661       H  0.69336175  0.18063870  0.04304133     0.18000
C1662       C  0.72512532  0.11636067  0.04593644    -0.26000
C1663       C  0.73823995  0.10235422  0.04921544     0.36100
C1664       C  0.73784540  0.09256652  0.06616780    -0.20000
C1665       C  0.72511736  0.09789987  0.07992568    -0.25200
C1666       C  0.71211717  0.11203062  0.07670361     0.27400
H1667       H  0.72511445  0.12348827  0.03273254     0.13200
N1668       N  0.75186690  0.09789539  0.03534587    -0.82500
H1669       H  0.72479582  0.09052848  0.09297893     0.18000
N1670       N  0.69915620  0.11721636  0.09093579    -0.81100
H1671       H  0.75033128  0.10633918  0.02370388     0.33700
H1672       H  0.76487158  0.10081984  0.04087868     0.38200
H1673       H  0.70117638  0.10929501  0.10286609     0.33600
H1674       H  0.70197063  0.13085426  0.09455213     0.30300
H1675       H  0.72356843  0.17264498  0.04775115     0.33600
H1676       H  0.72647940  0.15728250  0.06484727     0.30300
H1677       H  0.64037060  0.14064849  0.03885271     0.38200
H1678       H  0.64400642  0.12553838  0.05605118     0.33700
C1679       C  0.73320798  0.05278108  0.10933886    -0.20100
C1680       C  0.73888800  0.05259715  0.12792794     0.36200
C1681       C  0.72567030  0.05011888  0.14217633    -0.26000
C1682       C  0.70680074  0.04796494  0.13805971     0.02600
C1683       C  0.70103685  0.04864872  0.11946993     0.27400
C1684       C  0.71426999  0.05108042  0.10532300    -0.25200
N1685       N  0.75808636  0.05429451  0.13232204    -0.82600
H1686       H  0.73016123  0.04961982  0.15646207     0.13200
C1687       C  0.69310658  0.04453672  0.15313635     0.02600
N1688       N  0.68178205  0.04656631  0.11504899    -0.81100
H1689       H  0.70986472  0.05122907  0.09099582     0.18000
C1690       C  0.68155214  0.05888816  0.15907189    -0.26000
C1691       C  0.66807397  0.05607513  0.17300019     0.36100
C1692       C  0.66575355  0.03829650  0.18080693    -0.20000
C1693       C  0.67716019  0.02388213  0.17447293    -0.25200
C1694       C  0.69085499  0.02684300  0.16083880     0.27400
H1695       H  0.68322948  0.07241110  0.15292182     0.13200
N1696       N  0.65672694  0.07119757  0.17903857    -0.82500
H1697       H  0.67565910  0.01026813  0.18045271     0.18000
N1698       N  0.70255229  0.01197431  0.15482091    -0.81100
H1699       H  0.65924802  0.08286108  0.17089285     0.33700
H1700       H  0.66088645  0.07465156  0.19242801     0.38200
H1701       H  0.69929352  0.99986995  0.16199524     0.33600
H1702       H  0.69970181  0.00949788  0.14086845     0.30300
H1703       H  0.67980008  0.04752609  0.10074482     0.33600
H1704       H  0.67780705  0.03326365  0.11893753     0.30300
H1705       H  0.75962579  0.06566562  0.14101929     0.38200
H1706       H  0.76204911  0.04254621  0.13969770     0.33700
C1707       C  0.53852158  0.75918181  0.47669490    -0.20100
C1708       C  0.52003602  0.75813025  0.47038878     0.36200
C1709       C  0.50535293  0.75794819  0.48320244    -0.26000
C1710       C  0.50853865  0.75961085  0.50225739     0.02600
C1711       C  0.52682299  0.76190301  0.50856361     0.27400
C1712       C  0.54156917  0.76126593  0.49582439    -0.25200
N1713       N  0.51589462  0.75769750  0.45103603    -0.82600
H1714       H  0.49134367  0.75634103  0.47819253     0.13200
C1715       C  0.49277778  0.75797500  0.51552042     0.02600
N1716       N  0.53034468  0.76479309  0.52792604    -0.81100
H1717       H  0.55554245  0.76209573  0.50103891     0.18000
C1718       C  0.49396463  0.74523253  0.53000565    -0.26000
C1719       C  0.47974335  0.74312473  0.54298946     0.36100
C1720       C  0.46283005  0.75317364  0.54095392    -0.20000
C1721       C  0.46193400  0.76619276  0.52636781    -0.25200
C1722       C  0.47676797  0.76888982  0.51393240     0.27400
H1723       H  0.50630441  0.73686579  0.53142430     0.13200
N1724       N  0.48351064  0.73106786  0.55830662    -0.82500
H1725       H  0.45010768  0.77500836  0.52474804     0.18000
N1726       N  0.47580098  0.78298871  0.49994497    -0.81100
H1727       H  0.47492499  0.71952174  0.55813998     0.33700
H1728       H  0.48215028  0.73808533  0.57076500     0.38200
H1729       H  0.46311971  0.78989503  0.50058153     0.33600
H1730       H  0.48600650  0.79273134  0.50288791     0.30300
H1731       H  0.54452054  0.76624550  0.53031018     0.33600
H1732       H  0.52417086  0.77727739  0.53165750     0.30300
H1733       H  0.50743524  0.76896995  0.44797282     0.38200
H1734       H  0.50837545  0.74570978  0.44837494     0.33700
C1735       C  0.24032382  0.82843891  0.55145666    -0.20100
C1736       C  0.22380060  0.82938701  0.56193791     0.36200
C1737       C  0.21169857  0.81433887  0.56190129    -0.26000
C1738       C  0.21567422  0.79852598  0.55151391     0.02600
C1739       C  0.23208858  0.79760038  0.54095773     0.27400
C1740       C  0.24420937  0.81262371  0.54097116    -0.25200
N1741       N  0.21913795  0.84568217  0.57222596    -0.82600
H1742       H  0.19880220  0.81512967  0.56959749     0.13200
C1743       C  0.20168139  0.78377871  0.55079007     0.02600
N1744       N  0.23636493  0.78142021  0.53032618    -0.81100
H1745       H  0.25688008  0.81186287  0.53291030     0.18000
C1746       C  0.19410779  0.77909780  0.53362005    -0.26000
C1747       C  0.17894781  0.76716513  0.53248622     0.36100
C1748       C  0.17127749  0.75979188  0.54896085    -0.20000
C1749       C  0.17932345  0.76397770  0.56607832    -0.25200
C1750       C  0.19459830  0.77577167  0.56714449     0.27400
H1751       H  0.19951392  0.78545697  0.52111874     0.13200
N1752       N  0.17097767  0.76309110  0.51475667    -0.82500
H1753       H  0.17365730  0.75805078  0.57867791     0.18000
N1754       N  0.20283528  0.77985581  0.58474114    -0.81100
H1755       H  0.17861193  0.76926992  0.50407940     0.33700
H1756       H  0.15781610  0.76906751  0.51444985     0.38200
H1757       H  0.19589703  0.77293558  0.59542919     0.33600
H1758       H  0.21635253  0.77472152  0.58447556     0.30300
H1759       H  0.24889138  0.78305593  0.52318791     0.33600
H1760       H  0.23823662  0.77054816  0.53964394     0.30300
H1761       H  0.21689368  0.85626847  0.56265602     0.38200
H1762       H  0.20667307  0.84389612  0.57943609     0.49100
C1763       C  0.39672925  0.76893568  0.56351250    -0.20100
C1764       C  0.38910598  0.77755705  0.57938407     0.36200
C1765       C  0.37404776  0.78964210  0.57758971    -0.26000
C1766       C  0.36615058  0.79332397  0.56029577     0.02600
C1767       C  0.37283240  0.78389403  0.54457665     0.27400
C1768       C  0.38806010  0.77189430  0.54632156    -0.25200
N1769       N  0.39692859  0.77481991  0.59732363    -0.82600
H1770       H  0.36888119  0.79670900  0.58977560     0.13200
C1771       C  0.35138691  0.80758417  0.55887768     0.02600
N1772       N  0.36417876  0.78663097  0.52690666    -0.81100
H1773       H  0.39334331  0.76498356  0.53410859     0.18000
C1774       C  0.35424928  0.82311571  0.54758918    -0.26000
C1775       C  0.34099426  0.83732183  0.54655264     0.36100
C1776       C  0.32454124  0.83603082  0.55716077    -0.20000
C1777       C  0.32178229  0.82047559  0.56850370    -0.25200
C1778       C  0.33488856  0.80617353  0.56928455     0.27400
H1779       H  0.36701295  0.82424592  0.53972021     0.13200
N1780       N  0.34424030  0.85300904  0.53480985    -0.82500
H1781       H  0.30905532  0.81917186  0.57640164     0.18000
N1782       N  0.33138216  0.79004849  0.58034590    -0.81100
H1783       H  0.35682342  0.85166185  0.52772238     0.33700
H1784       H  0.34551080  0.86452689  0.54336252     0.38200
H1785       H  0.31859580  0.79109123  0.58710910     0.33600
H1786       H  0.33042835  0.77883888  0.57134210     0.30300
H1787       H  0.37072486  0.77870031  0.51673052     0.33600
H1788       H  0.35060131  0.78176620  0.52798619     0.30300
H1789       H  0.38666018  0.76935601  0.60598802     0.38200
H1790       H  0.40067044  0.78766638  0.60260017     0.33700
C1791       C  0.67876200  0.83970236  0.46738632    -0.20100
C1792       C  0.67598745  0.82502396  0.48011571     0.36200
C1793       C  0.66176944  0.81213501  0.47699735    -0.26000
C1794       C  0.65033293  0.81342809  0.46143008     0.02600
C1795       C  0.65347720  0.82761412  0.44841645     0.27400
C1796       C  0.66746494  0.84068495  0.45162352    -0.25200
N1797       N  0.68755489  0.82315949  0.49614595    -0.82600
H1798       H  0.65934920  0.80119077  0.48694609     0.13200
C1799       C  0.63448708  0.80047251  0.45936693     0.02600
N1800       N  0.64254257  0.82854308  0.43187097    -0.81100
H1801       H  0.66974125  0.85153962  0.44155191     0.18000
C1802       C  0.61650772  0.80758782  0.45929928    -0.26000
C1803       C  0.60109438  0.79609993  0.45720320     0.36100
C1804       C  0.60335205  0.77673922  0.45549030    -0.20000
C1805       C  0.62155304  0.76965173  0.45565091    -0.25200
C1806       C  0.63707762  0.78133194  0.45738415     0.27400
H1807       H  0.61439645  0.82229047  0.46075080     0.13200
N1808       N  0.58305724  0.80429077  0.45650212    -0.82500
H1809       H  0.62400095  0.75513148  0.45387948     0.18000
N1810       N  0.65550015  0.77388636  0.45670387    -0.81100
H1811       H  0.58089258  0.81161620  0.46877380     0.33700
H1812       H  0.58283690  0.81365315  0.44547857     0.38200
H1813       H  0.65512294  0.75959494  0.45511649     0.33600
H1814       H  0.66198974  0.77917086  0.44484533     0.30300
H1815       H  0.64660914  0.83971301  0.42364996     0.33600
H1816       H  0.64531683  0.81667852  0.42416021     0.30300
H1817       H  0.68470270  0.83427856  0.50487532     0.38200
H1818       H  0.68414461  0.81127288  0.50361296     0.33700
C1819       C  0.44307603  0.82147797  0.75633797    -0.20100
C1820       C  0.42552592  0.81332234  0.75920033     0.36200
C1821       C  0.42378647  0.79857608  0.77174630    -0.26000
C1822       C  0.43923327  0.79183911  0.78124087     0.02600
C1823       C  0.45669926  0.79998760  0.77842672     0.27400
C1824       C  0.45847151  0.81462041  0.76588797    -0.25200
N1825       N  0.40963757  0.81983826  0.74924169    -0.82600
H1826       H  0.41043000  0.79215471  0.77398880     0.13200
C1827       C  0.43724562  0.77615292  0.79412183     0.02600
N1828       N  0.47251611  0.79344734  0.78850487    -0.81100
H1829       H  0.47190423  0.82095215  0.76386088     0.18000
C1830       C  0.44659675  0.75975374  0.79004699    -0.26000
C1831       C  0.44759522  0.74554657  0.80310792     0.36100
C1832       C  0.43886648  0.74762703  0.82047542    -0.20000
C1833       C  0.42841073  0.76355343  0.82406872    -0.25200
C1834       C  0.42773494  0.77801266  0.81111049     0.27400
H1835       H  0.45378191  0.75828441  0.77690878     0.13200
N1836       N  0.45773774  0.72915129  0.79877465    -0.82500
H1837       H  0.42169459  0.76519931  0.83742324     0.18000
N1838       N  0.41816193  0.79483669  0.81542261    -0.81100
H1839       H  0.45196157  0.72332358  0.78691575     0.33700
H1840       H  0.47137388  0.73288801  0.79564982     0.38200
H1841       H  0.41192070  0.79397305  0.82849928     0.33600
H1842       H  0.42803375  0.80531663  0.81619697     0.30300
H1843       H  0.48436405  0.80086615  0.78478928     0.33600
H1844       H  0.47011242  0.79604463  0.80255605     0.30300
H1845       H  0.41189193  0.81708596  0.73519602     0.38200
H1846       H  0.39781076  0.81247349  0.75313746     0.33700
C1847       C  0.50016170  0.88916085  0.74248986    -0.20100
C1848       C  0.50485966  0.88695248  0.76142362     0.36200
C1849       C  0.52081161  0.89544124  0.76831447    -0.26000
C1850       C  0.53242786  0.90573863  0.75676319     0.02600
C1851       C  0.52802036  0.90789161  0.73788829     0.27400
C1852       C  0.51190207  0.89957023  0.73091068    -0.25200
N1853       N  0.49355691  0.87600279  0.77364978    -0.82600
H1854       H  0.52442211  0.89378291  0.78277521     0.13200
C1855       C  0.54931772  0.91393261  0.76475532     0.02600
N1856       N  0.53986447  0.91860495  0.72597863    -0.81100
H1857       H  0.50841778  0.90137347  0.71644397     0.18000
C1858       C  0.56659008  0.90634686  0.76030850    -0.26000
C1859       C  0.58293123  0.91361789  0.76778703     0.36100
C1860       C  0.58192577  0.92917585  0.77951967    -0.20000
C1861       C  0.56451089  0.93617291  0.78460256    -0.25200
C1862       C  0.54818040  0.92865878  0.77736890     0.27400
H1863       H  0.56726927  0.89463296  0.75106209     0.13200
N1864       N  0.60048210  0.90528047  0.76348053    -0.82500
H1865       H  0.56364013  0.94798756  0.79369400     0.18000
N1866       N  0.53044717  0.93607321  0.78253664    -0.81100
H1867       H  0.59875966  0.89405392  0.75462303     0.33700
H1868       H  0.60584808  0.90001974  0.77583330     0.38200
H1869       H  0.53198744  0.94676944  0.79206645     0.33600
H1870       H  0.52456848  0.94185379  0.77066957     0.30300
H1871       H  0.53471335  0.91882501  0.71247716     0.33600
H1872       H  0.53954473  0.93219027  0.73072368     0.30300
H1873       H  0.49473222  0.86230923  0.76936579     0.38200
H1874       H  0.49857655  0.87644131  0.78719471     0.33700
C1875       C  0.44413589  0.83719008  0.67410239    -0.20100
C1876       C  0.42724842  0.82784950  0.67087775     0.36200
C1877       C  0.42644831  0.81419180  0.65708150    -0.26000
C1878       C  0.44200130  0.80983277  0.64627588     0.02600
C1879       C  0.45866724  0.81948210  0.64906459     0.27400
C1880       C  0.45956246  0.83303124  0.66292308    -0.25200
N1881       N  0.41114433  0.83173078  0.68198535    -0.82600
H1882       H  0.41360926  0.80691023  0.65467666     0.13200
C1883       C  0.44047964  0.79565162  0.63154871     0.02600
N1884       N  0.47471078  0.81522397  0.63801304    -0.81100
H1885       H  0.47253652  0.84007695  0.66529561     0.18000
C1886       C  0.44127419  0.80130422  0.61304479    -0.26000
C1887       C  0.44008784  0.78852465  0.59862478     0.36100
C1888       C  0.43832875  0.76949215  0.60261286    -0.20000
C1889       C  0.43709945  0.76382118  0.62116832    -0.25200
C1890       C  0.43824430  0.77675830  0.63572683     0.27400
H1891       H  0.44271319  0.81580350  0.60975895     0.13200
N1892       N  0.44029400  0.79499894  0.57985423    -0.82500
H1893       H  0.43569825  0.74930340  0.62429505     0.18000
N1894       N  0.43743809  0.77080913  0.65470946    -0.81100
H1895       H  0.45259997  0.80225775  0.57764077     0.33700
H1896       H  0.42924632  0.80413665  0.57816563     0.38200
H1897       H  0.43578612  0.75653054  0.65545257     0.33600
H1898       H  0.45021861  0.77378188  0.66071411     0.30300
H1899       H  0.48584766  0.82359092  0.64172107     0.33600
H1900       H  0.47858474  0.80168765  0.64106953     0.30300
H1901       H  0.40677597  0.84505464  0.67867229     0.38200
H1902       H  0.40024943  0.82297146  0.67847625     0.33700
C1903       C  0.55842048  0.90193955  0.28059464    -0.20100
C1904       C  0.57605312  0.89841410  0.27272320     0.36200
C1905       C  0.58640016  0.91307245  0.26516460    -0.26000
C1906       C  0.57950340  0.93113442  0.26526129     0.02600
C1907       C  0.56208433  0.93468713  0.27345610     0.27400
C1908       C  0.55178547  0.92008457  0.28108747    -0.25200
N1909       N  0.58335734  0.88000230  0.27233314    -0.82600
H1910       H  0.59978238  0.91037785  0.25888556     0.13200
C1911       C  0.59043162  0.94623211  0.25650226     0.02600
N1912       N  0.55485939  0.95312587  0.27385242    -0.81100
H1913       H  0.53824578  0.92283111  0.28698758     0.18000
C1914       C  0.58269079  0.95629593  0.24183912    -0.26000
C1915       C  0.59197240  0.97144870  0.23391640     0.36100
C1916       C  0.60928008  0.97691128  0.24110125    -0.20000
C1917       C  0.61736256  0.96626606  0.25522588    -0.25200
C1918       C  0.60818439  0.95095724  0.26292632     0.27400
H1919       H  0.56922284  0.95236265  0.23666111     0.13200
N1920       N  0.58358817  0.98154445  0.21901203    -0.82500
H1921       H  0.63073794  0.97017453  0.26064538     0.18000
N1922       N  0.61662597  0.94048187  0.27754251    -0.81100
H1923       H  0.57055515  0.97616180  0.21593312     0.33700
H1924       H  0.59178222  0.97951451  0.20720676     0.38200
H1925       H  0.62977381  0.94563519  0.28054070     0.33600
H1926       H  0.60857452  0.94222665  0.28948671     0.30300
H1927       H  0.54178255  0.95338611  0.28012262     0.33600
H1928       H  0.56357661  0.96098839  0.28219213     0.30300
H1929       H  0.58538940  0.87584422  0.28604719     0.38200
H1930       H  0.59635692  0.87977043  0.26589787     0.33700
C1931       C  0.52413117  0.83108096  0.34536363    -0.20100
C1932       C  0.50932711  0.82014861  0.35215499     0.36200
C1933       C  0.51250564  0.80756686  0.36670072    -0.26000
C1934       C  0.53009184  0.80576991  0.37453112     0.02600
C1935       C  0.54467132  0.81706697  0.36824978     0.27400
C1936       C  0.54154783  0.82960114  0.35376607    -0.25200
N1937       N  0.49121414  0.82169838  0.34418927    -0.82600
H1938       H  0.50133179  0.79896931  0.37180266     0.13200
C1939       C  0.53349077  0.79193666  0.38921421     0.02600
N1940       N  0.56272649  0.81541567  0.37636193    -0.81100
H1941       H  0.55297145  0.83784007  0.34862707     0.18000
C1942       C  0.54200868  0.77521427  0.38443955    -0.26000
C1943       C  0.54929752  0.76355137  0.39817911     0.36100
C1944       C  0.54795416  0.76880104  0.41686276    -0.20000
C1945       C  0.53805937  0.78472106  0.42169879    -0.25200
C1946       C  0.53083124  0.79641900  0.40801271     0.27400
H1947       H  0.54396537  0.77185193  0.36994409     0.13200
N1948       N  0.55917031  0.74708896  0.39324349    -0.82500
H1949       H  0.53734098  0.78880270  0.43611945     0.18000
N1950       N  0.52171482  0.81328695  0.41306783    -0.81100
H1951       H  0.55907727  0.74524601  0.37888426     0.33700
H1952       H  0.55198503  0.73595099  0.39899761     0.38200
H1953       H  0.52077648  0.81443715  0.42747965     0.33600
H1954       H  0.52999283  0.82420621  0.40850734     0.30300
H1955       H  0.57204002  0.82444696  0.36995572     0.33600
H1956       H  0.56166899  0.81954137  0.39019208     0.30300
H1957       H  0.48631258  0.83494233  0.34703053     0.38200
H1958       H  0.48202039  0.81254096  0.35059977     0.33700
C1959       C  0.02640670  0.04094437  0.75518346    -0.20100
C1960       C  0.02760293  0.02359791  0.76409798     0.36200
C1961       C  0.01348075  0.01072356  0.76205457    -0.26000
C1962       C  0.99822306  0.01446415  0.75091073     0.02600
C1963       C  0.99706138  0.03121060  0.74126959     0.27400
C1964       C  0.01112242  0.04433600  0.74348590    -0.25200
N1965       N  0.04317521  0.01899116  0.77540377    -0.82600
H1966       H  0.01435241  0.99771514  0.76939834     0.13200
C1967       C  0.98335278  0.00074150  0.75022639     0.02600
N1968       N  0.98165202  0.03473571  0.72924817    -0.81100
H1969       H  0.00991190  0.05688201  0.73566941     0.18000
C1970       C  0.96666063  0.00455923  0.75925123    -0.26000
C1971       C  0.95346478  0.99074935  0.76196068     0.36100
C1972       C  0.95660326  0.97282692  0.75483792    -0.20000
C1973       C  0.97340131  0.96933522  0.74540665    -0.25200
C1974       C  0.98675133  0.98310817  0.74306987     0.27400
H1975       H  0.96431323  0.01807001  0.76516553     0.13200
N1976       N  0.93721163  0.99480307  0.77267688    -0.82500
H1977       H  0.97692731  0.95578492  0.74057343     0.18000
N1978       N  0.00410835  0.97913239  0.73407762    -0.81100
H1979       H  0.94136619  0.99922168  0.78578437     0.33700
H1980       H  0.93021430  0.00565752  0.76625298     0.38200
H1981       H  0.00465926  0.96538753  0.72985103     0.33600
H1982       H  0.00482470  0.98715557  0.72205319     0.30300
H1983       H  0.98280124  0.04775136  0.72314417     0.33600
H1984       H  0.98227305  0.02516488  0.71846286     0.30300
H1985       H  0.04934849  0.00713675  0.76998355     0.38200
H1986       H  0.03832262  0.01591878  0.78873292     0.33700
C1987       C  0.74162195  0.95289516  0.69273648    -0.20100
C1988       C  0.73248502  0.93578738  0.69117139     0.36200
C1989       C  0.71916550  0.93085421  0.70457316    -0.26000
C1990       C  0.71501176  0.94265553  0.71937133     0.02600
C1991       C  0.72473696  0.95935260  0.72129517     0.27400
C1992       C  0.73809123  0.96414734  0.70809137    -0.25200
N1993       N  0.73596428  0.92400629  0.67557010    -0.82600
H1994       H  0.71158546  0.91807207  0.70320813     0.13200
C1995       C  0.69926828  0.93864177  0.73184711     0.02600
N1996       N  0.72039971  0.97178203  0.73619642    -0.81100
H1997       H  0.74526092  0.97717362  0.70940046     0.18000
C1998       C  0.70233610  0.93802670  0.75099617    -0.26000
C1999       C  0.68759255  0.93978832  0.76350855     0.36100
C2000       C  0.66944459  0.94165564  0.75671914    -0.20000
C2001       C  0.66623239  0.94025228  0.73764098    -0.25200
C2002       C  0.68101113  0.93893016  0.72505811     0.27400
H2003       H  0.71636930  0.93772794  0.75620772     0.13200
N2004       N  0.69129364  0.94116920  0.78293226    -0.82500
H2005       H  0.65223176  0.94138540  0.73246462     0.18000
N2006       N  0.67760539  0.93908130  0.70545057    -0.81100
H2007       H  0.69823886  0.92922936  0.78705470     0.33700
H2008       H  0.70014187  0.95235569  0.78498071     0.38200
H2009       H  0.66339133  0.93911604  0.70282813     0.33600
H2010       H  0.68281447  0.95142864  0.70009458     0.30300
H2011       H  0.72894489  0.98338040  0.73569565     0.33600
H2012       H  0.70687733  0.97649800  0.73423170     0.30300
H2013       H  0.74946926  0.91901096  0.67679773     0.38200
H2014       H  0.72729701  0.91249513  0.67603663     0.33700
C2015       C  0.76332090  0.94704045  0.60348971    -0.20100
C2016       C  0.74506799  0.94728239  0.59649172     0.36200
C2017       C  0.74105007  0.93771195  0.58018142    -0.26000
C2018       C  0.75480126  0.92804571  0.57054312     0.02600
C2019       C  0.77312629  0.92810867  0.57719827     0.27400
C2020       C  0.77722508  0.93768680  0.59360981    -0.25200
N2021       N  0.73069234  0.95748781  0.60575757    -0.82600
H2022       H  0.72709726  0.93796773  0.57476680     0.13200
C2023       C  0.74959343  0.91829924  0.55330735     0.02600
N2024       N  0.78739718  0.91829726  0.56739125    -0.81100
H2025       H  0.79123432  0.93758217  0.59886780     0.18000
C2026       C  0.75763429  0.92366614  0.53643695    -0.26000
C2027       C  0.75198130  0.91575262  0.51965454     0.36100
C2028       C  0.73810968  0.90202589  0.51980457    -0.20000
C2029       C  0.73001494  0.89672621  0.53669549    -0.25200
C2030       C  0.73570980  0.90464306  0.55347791     0.27400
H2031       H  0.76801639  0.93442037  0.53633945     0.13200
N2032       N  0.75996545  0.92192123  0.50243505    -0.82500
H2033       H  0.71948475  0.88611975  0.53683222     0.18000
N2034       N  0.72752075  0.89886200  0.57073288    -0.81100
H2035       H  0.76997501  0.93202241  0.50475957     0.33700
H2036       H  0.74945311  0.92821856  0.49480154     0.38200
H2037       H  0.71750287  0.88875152  0.56849182     0.33600
H2038       H  0.73792691  0.89273033  0.57864243     0.30300
H2039       H  0.80010322  0.91975694  0.57407956     0.33600
H2040       H  0.78407924  0.90430007  0.56788625     0.30300
H2041       H  0.73409366  0.97144917  0.60480558     0.38200
H2042       H  0.71804639  0.95591537  0.59898650     0.33700
C2043       C  0.81917109  0.97225990  0.68656643    -0.20100
C2044       C  0.81588403  0.97625886  0.70550707     0.36200
C2045       C  0.82950648  0.97207941  0.71865250    -0.26000
C2046       C  0.84639353  0.96421943  0.71334312     0.02600
C2047       C  0.84988226  0.96054385  0.69444505     0.27400
C2048       C  0.83612710  0.96438608  0.68126525    -0.25200
N2049       N  0.79841618  0.98371550  0.71151150    -0.82600
H2050       H  0.82689887  0.97481108  0.73318703     0.13200
C2051       C  0.86041736  0.96005133  0.72768903     0.02600
N2052       N  0.86738499  0.95294453  0.68875635    -0.81100
H2053       H  0.83864164  0.96123286  0.66680475     0.18000
C2054       C  0.86643511  0.94186587  0.73013834    -0.26000
C2055       C  0.88140083  0.93772238  0.74174474     0.36100
C2056       C  0.89057468  0.95204550  0.75116003    -0.20000
C2057       C  0.88303435  0.96992912  0.75030376    -0.25200
C2058       C  0.86829792  0.97415163  0.73842121     0.27400
H2059       H  0.85997081  0.93089675  0.72235969     0.13200
N2060       N  0.88767376  0.91909820  0.74305442    -0.82500
H2061       H  0.88955070  0.98095396  0.75795293     0.18000
N2062       N  0.86192542  0.99282024  0.73654087    -0.81100
H2063       H  0.87678526  0.91113319  0.74829084     0.33700
H2064       H  0.89067252  0.91442243  0.72968979     0.38200
H2065       H  0.86918188  0.00153324  0.74542096     0.33600
H2066       H  0.86498344  0.99715706  0.72304532     0.30300
H2067       H  0.86773325  0.95100449  0.67441310     0.33600
H2068       H  0.87760425  0.96264834  0.69177051     0.30300
H2069       H  0.79781078  0.99735601  0.70691254     0.38200
H2070       H  0.79770783  0.98427307  0.72596931     0.33700
C2071       C  0.93053134  0.75355016  0.68699758    -0.20100
C2072       C  0.92709460  0.76069885  0.70481908     0.36200
C2073       C  0.92473391  0.74847679  0.71970385    -0.26000
C2074       C  0.92578101  0.72941624  0.71695056     0.02600
C2075       C  0.92804941  0.72229706  0.69892929     0.27400
C2076       C  0.93054881  0.73450637  0.68409110    -0.25200
N2077       N  0.92696111  0.78025564  0.70786831    -0.82600
H2078       H  0.92299614  0.75377459  0.73362696     0.13200
C2079       C  0.92727036  0.71714044  0.73312544     0.02600
N2080       N  0.92848782  0.70273832  0.69590314    -0.81100
H2081       H  0.93300343  0.72917438  0.67028109     0.18000
C2082       C  0.91401673  0.70334263  0.73597933    -0.26000
C2083       C  0.91681609  0.68953843  0.74931630     0.36100
C2084       C  0.93307617  0.68988603  0.76005463    -0.20000
C2085       C  0.94576666  0.70430093  0.75785034    -0.25200
C2086       C  0.94311785  0.71788307  0.74437352     0.27400
H2087       H  0.90193098  0.70289369  0.72717911     0.13200
N2088       N  0.90370337  0.67478630  0.75134473    -0.82500
H2089       H  0.95812878  0.70461607  0.76627161     0.18000
N2090       N  0.95681312  0.73198694  0.74153109    -0.81100
H2091       H  0.89248170  0.67673488  0.74247510     0.33700
H2092       H  0.91023653  0.66265021  0.74708964     0.38200
H2093       H  0.96753946  0.73064816  0.75109997     0.33600
H2094       H  0.96271361  0.72996626  0.72843395     0.30300
H2095       H  0.92999554  0.69982717  0.68179630     0.33600
H2096       H  0.94024200  0.69750856  0.70245042     0.30300
H2097       H  0.94028148  0.78519303  0.70509489     0.38200
H2098       H  0.92418332  0.78318338  0.72178305     0.33700
C2099       C  0.99842049  0.77572795  0.62436773    -0.20100
C2100       C  0.01080318  0.76445067  0.63451239     0.36200
C2101       C  0.02679828  0.75752486  0.62577595    -0.26000
C2102       C  0.03081343  0.76166958  0.60722894     0.02600
C2103       C  0.01882757  0.77328660  0.59723111     0.27400
C2104       C  0.00274294  0.78014384  0.60586641    -0.25200
N2105       N  0.00701454  0.75976050  0.65352159    -0.82600
H2106       H  0.03612935  0.74866013  0.63340254     0.13200
C2107       C  0.04761586  0.75369422  0.59840682     0.02600
N2108       N  0.02303178  0.77799348  0.57831615    -0.81100
H2109       H  0.99337649  0.78872163  0.59797099     0.18000
C2110       C  0.04568606  0.74129126  0.58369264    -0.26000
C2111       C  0.06126561  0.73401505  0.57446458     0.36100
C2112       C  0.07921652  0.73909505  0.58028693    -0.20000
C2113       C  0.08104793  0.75125484  0.59529706    -0.25200
C2114       C  0.06545148  0.75860877  0.60439032     0.27400
H2115       H  0.03191922  0.73754446  0.57919244     0.13200
N2116       N  0.05883932  0.72198571  0.55888549    -0.82500
H2117       H  0.09473228  0.75531012  0.59976328     0.18000
N2118       N  0.06762604  0.77131198  0.61945895    -0.81100
H2119       H  0.04480335  0.71928549  0.55676528     0.33700
H2120       H  0.06350815  0.72899385  0.54708345     0.38200
H2121       H  0.08164177  0.77347279  0.62221078     0.33600
H2122       H  0.06222193  0.78399053  0.61523491     0.30300
H2123       H  0.01278513  0.78656770  0.57285889     0.33600
H2124       H  0.03529271  0.78562278  0.57827781     0.30300
H2125       H  0.00797074  0.77186178  0.66126236     0.38200
H2126       H  0.01712410  0.75083927  0.65867324     0.33700
C2127       C  0.94025546  0.83552634  0.67641735    -0.20100
C2128       C  0.95259736  0.83873922  0.69125190     0.36200
C2129       C  0.94895019  0.85305135  0.70387359    -0.26000
C2130       C  0.93308750  0.86405857  0.70238635     0.02600
C2131       C  0.92061319  0.86077463  0.68778501     0.27400
C2132       C  0.92432547  0.84658392  0.67497277    -0.25200
N2133       N  0.96864130  0.82730053  0.69373700    -0.82600
H2134       H  0.95858972  0.85568114  0.71499611     0.13200
C2135       C  0.93043849  0.87960751  0.71563531     0.02600
N2136       N  0.90417335  0.87179082  0.68611280    -0.81100
H2137       H  0.91463385  0.84406411  0.66387602     0.18000
C2138       C  0.93001386  0.89762045  0.70871126    -0.26000
C2139       C  0.92969620  0.91284307  0.72066510     0.36100
C2140       C  0.93006614  0.91005158  0.74012660    -0.20000
C2141       C  0.92939895  0.89204297  0.74709333    -0.25200
C2142       C  0.92964955  0.87676112  0.73502202     0.27400
H2143       H  0.93050789  0.89982276  0.69386331     0.13200
N2144       N  0.92924245  0.93118041  0.71309260    -0.82500
H2145       H  0.92940945  0.88990436  0.76195116     0.18000
N2146       N  0.92945184  0.85835385  0.74233988    -0.81100
H2147       H  0.92924275  0.93084485  0.69861114     0.33700
H2148       H  0.91674706  0.93723437  0.71715527     0.38200
H2149       H  0.92895198  0.85858964  0.75681583     0.33600
H2150       H  0.91722468  0.85209377  0.73795257     0.30300
H2151       H  0.89644467  0.86766672  0.67465124     0.33600
H2152       H  0.89596198  0.86930354  0.69782314     0.30300
H2153       H  0.96398492  0.81415537  0.69739509     0.38200
H2154       H  0.97656121  0.83193147  0.70486643     0.33700
C2155       C  0.27404607  0.91733105  0.58117164    -0.20100
C2156       C  0.26912781  0.93329540  0.57109700     0.36200
C2157       C  0.26297936  0.94897026  0.58067134    -0.26000
C2158       C  0.26144687  0.94905002  0.60005521     0.02600
C2159       C  0.26659642  0.93320763  0.61014726     0.27400
C2160       C  0.27269795  0.91743840  0.60057537    -0.25200
N2161       N  0.26952958  0.93328534  0.55116412    -0.82600
H2162       H  0.25877592  0.96105922  0.57293411     0.13200
C2163       C  0.25393213  0.96577617  0.60931101     0.02600
N2164       N  0.26555271  0.93319516  0.63003030    -0.81100
H2165       H  0.27627241  0.90512064  0.60826266     0.18000
C2166       C  0.23765635  0.96461258  0.61996934    -0.26000
C2167       C  0.22921139  0.98050265  0.62739608     0.36100
C2168       C  0.23723689  0.99798158  0.62401613    -0.20000
C2169       C  0.25378034  0.99894440  0.61367442    -0.25200
C2170       C  0.26227130  0.98307676  0.60648803     0.27400
H2171       H  0.23125757  0.95128460  0.62209540     0.13200
N2172       N  0.21263806  0.97884345  0.63836951    -0.82500
H2173       H  0.26022797  0.01218284  0.61118877     0.18000
N2174       N  0.27940580  0.98442259  0.59634893    -0.81100
H2175       H  0.20920879  0.96499455  0.64036134     0.33700
H2176       H  0.20182815  0.98463570  0.63076221     0.38200
H2177       H  0.28374946  0.99811655  0.59544443     0.33600
H2178       H  0.28948402  0.97738695  0.60392923     0.30300
H2179       H  0.26976777  0.92046708  0.63533854     0.33600
H2180       H  0.27500273  0.94294473  0.63482170     0.30300
H2181       H  0.25950577  0.92396827  0.54665556     0.38200
H2182       H  0.26568851  0.94616424  0.54594357     0.33700
C2183       C  0.16923181  0.05492872  0.67801263    -0.20100
C2184       C  0.16746543  0.06986644  0.69053355     0.36200
C2185       C  0.15240419  0.07039766  0.70305716    -0.26000
C2186       C  0.13911508  0.05631469  0.70356126     0.02600
C2187       C  0.14096912  0.04137664  0.69117737     0.27400
C2188       C  0.15580272  0.04097507  0.67846327    -0.25200
N2189       N  0.18093722  0.08441540  0.69062559    -0.82600
H2190       H  0.15088176  0.08200841  0.71233270     0.13200
C2191       C  0.12287841  0.05765570  0.71647607     0.02600
N2192       N  0.12791028  0.02646636  0.69176589    -0.81100
H2193       H  0.15710813  0.02939025  0.66912915     0.18000
C2194       C  0.10501312  0.05636861  0.70913539    -0.26000
C2195       C  0.08923012  0.05721647  0.72053887     0.36100
C2196       C  0.09125271  0.05927010  0.73995790    -0.20000
C2197       C  0.10906035  0.06118077  0.74729629    -0.25200
C2198       C  0.12491732  0.06026399  0.73578756     0.27400
H2199       H  0.10336640  0.05497450  0.69429495     0.13200
N2200       N  0.07113967  0.05665469  0.71234297    -0.82500
H2201       H  0.11059091  0.06310003  0.76208717     0.18000
N2202       N  0.14305955  0.06172240  0.74367143    -0.81100
H2203       H  0.07209241  0.05498095  0.69798464     0.33700
H2204       H  0.06488132  0.06943971  0.71457635     0.38200
H2205       H  0.14216751  0.06368696  0.75799495     0.33600
H2206       H  0.14977818  0.04913814  0.74162539     0.30300
H2207       H  0.13114738  0.01658350  0.68175543     0.33600
H2208       H  0.12919184  0.01999792  0.70465193     0.30300
H2209       H  0.17978351  0.09153314  0.67808259     0.38200
H2210       H  0.17796621  0.09391571  0.70109267     0.33700
C2211       C  0.06746832  0.23395097  0.59802716    -0.20100
C2212       C  0.06300931  0.22747025  0.58015105     0.36200
C2213       C  0.07133098  0.23567972  0.56452439    -0.26000
C2214       C  0.08447180  0.24978007  0.56633114     0.02600
C2215       C  0.08957624  0.25563982  0.58420418     0.27400
C2216       C  0.08094060  0.24777573  0.59981110    -0.25200
N2217       N  0.04986941  0.21282373  0.57784141    -0.82600
H2218       H  0.06743571  0.23115307  0.55080353     0.13200
C2219       C  0.09285810  0.25818253  0.54939891     0.02600
N2220       N  0.10347114  0.26959923  0.58643235    -0.81100
H2221       H  0.08454891  0.25275438  0.61345323     0.18000
C2222       C  0.09197155  0.27732845  0.54675651    -0.26000
C2223       C  0.10015609  0.28581246  0.53116448     0.36100
C2224       C  0.10919871  0.27483193  0.51769674    -0.20000
C2225       C  0.10969169  0.25562848  0.52024106    -0.25200
C2226       C  0.10174943  0.24722515  0.53593044     0.27400
H2227       H  0.08491366  0.28570870  0.55699234     0.13200
N2228       N  0.09925707  0.30547245  0.52905617    -0.82500
H2229       H  0.11649184  0.24705623  0.51000192     0.18000
N2230       N  0.10288265  0.22760173  0.53834660    -0.81100
H2231       H  0.09145226  0.31134255  0.53976125     0.33700
H2232       H  0.11269594  0.31056696  0.53047779     0.38200
H2233       H  0.10971950  0.22150544  0.52712825     0.33600
H2234       H  0.11096941  0.22505523  0.55003809     0.30300
H2235       H  0.10552667  0.27245262  0.60046025     0.33600
H2236       H  0.11595300  0.26429123  0.58135913     0.30300
H2237       H  0.05566520  0.20092879  0.58358504     0.38200
H2238       H  0.04784803  0.21004693  0.56379585     0.33700
C2239       C  0.05433604  0.10430863  0.74281662    -0.20100
C2240       C  0.06999612  0.11006696  0.73255810     0.36200
C2241       C  0.06842139  0.12468265  0.71994966    -0.26000
C2242       C  0.05151986  0.13377272  0.71742306     0.02600
C2243       C  0.03627841  0.12916325  0.72874960     0.27400
C2244       C  0.03786118  0.11453550  0.74138098    -0.25200
N2245       N  0.08729192  0.10064075  0.73406192    -0.82600
H2246       H  0.08027807  0.12841076  0.71148032     0.13200
C2247       C  0.04980897  0.14770544  0.70251331     0.02600
N2248       N  0.01916306  0.13910700  0.72705951    -0.81100
H2249       H  0.02591816  0.11058841  0.74961609     0.18000
C2250       C  0.03671494  0.14510243  0.68844771    -0.26000
C2251       C  0.03430311  0.15831176  0.67438586     0.36100
C2252       C  0.04539404  0.17427105  0.67435720    -0.20000
C2253       C  0.05892682  0.17648154  0.68804482    -0.25200
C2254       C  0.06109387  0.16348409  0.70225804     0.27400
H2255       H  0.02828557  0.13277173  0.68854956     0.13200
N2256       N  0.02069546  0.15560008  0.66021553    -0.82500
H2257       H  0.06727415  0.18886451  0.68817068     0.18000
N2258       N  0.07432696  0.16648381  0.71673120    -0.81100
H2259       H  0.01370554  0.14315889  0.66228928     0.33700
H2260       H  0.02773207  0.15443847  0.64757605     0.38200
H2261       H  0.08150832  0.17879329  0.71452033     0.33600
H2262       H  0.06697261  0.16804581  0.72914195     0.30300
H2263       H  0.00925313  0.13391365  0.73629184     0.33600
H2264       H  0.02166302  0.15271834  0.73098710     0.30300
H2265       H  0.09113747  0.09608601  0.72086352     0.38200
H2266       H  0.09723104  0.11011675  0.73839541     0.33700
C2267       C  0.73399593  0.53445648  0.47063556    -0.20100
C2268       C  0.75186349  0.52837418  0.47594802     0.36200
C2269       C  0.75379915  0.51482979  0.48968693    -0.26000
C2270       C  0.73821378  0.50695130  0.49805139     0.02600
C2271       C  0.72046417  0.51175661  0.49195468     0.27400
C2272       C  0.71849852  0.52534310  0.47835099    -0.25200
N2273       N  0.76812442  0.53601646  0.46751035    -0.82600
H2274       H  0.76750615  0.51066468  0.49404638     0.13200
C2275       C  0.74028197  0.49360192  0.51326097     0.02600
N2276       N  0.70445666  0.50275842  0.49971476    -0.81100
H2277       H  0.70464871  0.52831508  0.47399155     0.18000
C2278       C  0.73387315  0.49844921  0.53089017    -0.26000
C2279       C  0.73305664  0.48545749  0.54518022     0.36100
C2280       C  0.73920659  0.46720469  0.54207436    -0.20000
C2281       C  0.74593199  0.46259315  0.52423603    -0.25200
C2282       C  0.74639840  0.47559153  0.50982564     0.27400
H2283       H  0.72881762  0.51228382  0.53337938     0.13200
N2284       N  0.72540138  0.49073428  0.56274572    -0.82500
H2285       H  0.75010642  0.44879602  0.52085962     0.18000
N2286       N  0.75241338  0.47042580  0.49152984    -0.81100
H2287       H  0.71187433  0.49537198  0.56062211     0.33700
H2288       H  0.73317096  0.50170792  0.56786788     0.38200
H2289       H  0.75656271  0.45664365  0.49125661     0.33600
H2290       H  0.74101146  0.47149175  0.48273407     0.30300
H2291       H  0.69229634  0.50794627  0.49391804     0.33600
H2292       H  0.70516341  0.48885584  0.49605578     0.30300
H2293       H  0.77553188  0.52529782  0.46128313     0.38200
H2294       H  0.77634143  0.54155419  0.47797504     0.33700
C2295       C  0.82351255  0.75992118  0.45627680    -0.20100
C2296       C  0.80425215  0.75815409  0.45393614     0.36200
C2297       C  0.79329026  0.77395947  0.45270489    -0.26000
C2298       C  0.80123963  0.79146968  0.45395721     0.02600
C2299       C  0.82053803  0.79334981  0.45566085     0.27400
C2300       C  0.83153498  0.77750908  0.45670819    -0.25200
N2301       N  0.79571802  0.74038938  0.45308447    -0.82600
H2302       H  0.77841227  0.77255109  0.45154915     0.13200
C2303       C  0.78898236  0.80753045  0.45572176     0.02600
N2304       N  0.82874992  0.81132700  0.45682379    -0.81100
H2305       H  0.84633698  0.77893186  0.45851257     0.18000
C2306       C  0.78897069  0.81714198  0.47247540    -0.26000
C2307       C  0.77661559  0.83163252  0.47559957     0.36100
C2308       C  0.76389404  0.83649971  0.46159348    -0.20000
C2309       C  0.76422052  0.82706334  0.44462023    -0.25200
C2310       C  0.77664025  0.81251556  0.44157632     0.27400
H2311       H  0.79844127  0.81303204  0.48331944     0.13200
N2312       N  0.77684337  0.84119252  0.49301982    -0.82500
H2313       H  0.75449026  0.83074639  0.43386788     0.18000
N2314       N  0.77662387  0.80260183  0.42436782    -0.81100
H2315       H  0.78658801  0.83539245  0.50195964     0.33700
H2316       H  0.78122794  0.85466297  0.49039006     0.38200
H2317       H  0.76656983  0.80790212  0.41546476     0.33600
H2318       H  0.78942847  0.80480211  0.41792593     0.30300
H2319       H  0.84309746  0.81030432  0.45830267     0.33600
H2320       H  0.82640080  0.81803711  0.44422666     0.30300
H2321       H  0.78594714  0.73949587  0.46378972     0.38200
H2322       H  0.78872008  0.73940825  0.44049481     0.33700
C2323       C  0.87343128  0.73179180  0.51940071    -0.20100
C2324       C  0.86519073  0.74729706  0.52808627     0.36200
C2325       C  0.87343614  0.75487477  0.54392056    -0.26000
C2326       C  0.88951007  0.74720527  0.55143548     0.02600
C2327       C  0.89737841  0.73141462  0.54322242     0.27400
C2328       C  0.88921603  0.72382600  0.52735818    -0.25200
N2329       N  0.84865184  0.75548355  0.52074063    -0.82600
H2330       H  0.86727094  0.76679927  0.55051634     0.13200
C2331       C  0.89780054  0.75555862  0.56818061     0.02600
N2332       N  0.91388364  0.72340524  0.55081555    -0.81100
H2333       H  0.89558826  0.71197255  0.52084703     0.18000
C2334       C  0.89897748  0.74496244  0.58433043    -0.26000
C2335       C  0.90735409  0.75186967  0.60034907     0.36100
C2336       C  0.91484642  0.76991568  0.60021247    -0.20000
C2337       C  0.91322133  0.78069701  0.58410336    -0.25200
C2338       C  0.90481182  0.77367628  0.56805613     0.27400
H2339       H  0.89335363  0.73113646  0.58437899     0.13200
N2340       N  0.90844994  0.74044529  0.61660932    -0.82500
H2341       H  0.91893611  0.79447618  0.58385922     0.18000
N2342       N  0.90371076  0.78469736  0.55153045    -0.81100
H2343       H  0.90303954  0.72735578  0.61405590     0.33700
H2344       H  0.89997971  0.74636808  0.62676206     0.38200
H2345       H  0.90948317  0.79769566  0.55372974     0.33600
H2346       H  0.91180889  0.77831959  0.54135310     0.30300
H2347       H  0.91788426  0.71181504  0.54322525     0.33600
H2348       H  0.92452351  0.73305147  0.54934367     0.30300
H2349       H  0.83795737  0.74592706  0.52239668     0.38200
H2350       H  0.84481910  0.76708537  0.52840653     0.33700
C2351       C  0.82210072  0.67044305  0.46024707    -0.20100
C2352       C  0.81108234  0.66912216  0.44412849     0.36200
C2353       C  0.79750432  0.65525635  0.44292293    -0.26000
C2354       C  0.79415028  0.64308137  0.45769491     0.02600
C2355       C  0.80467979  0.64486226  0.47404129     0.27400
C2356       C  0.81860437  0.65835381  0.47505866    -0.25200
N2357       N  0.81338059  0.68206754  0.42918939    -0.82600
H2358       H  0.78949718  0.65391838  0.43036100     0.13200
C2359       C  0.78030642  0.62792626  0.45566158     0.02600
N2360       N  0.80106243  0.63302964  0.48964110    -0.81100
H2361       H  0.82666547  0.65954082  0.48760347     0.18000
C2362       C  0.78608096  0.60978912  0.45880552    -0.26000
C2363       C  0.77376702  0.59498880  0.45748608     0.36100
C2364       C  0.75498452  0.59810783  0.45299690    -0.20000
C2365       C  0.74931102  0.61618832  0.44902171    -0.25200
C2366       C  0.76171774  0.63116635  0.45048418     0.27400
H2367       H  0.80043516  0.60701714  0.46207525     0.13200
N2368       N  0.78072959  0.57667227  0.45977137    -0.82500
H2369       H  0.73515551  0.61867325  0.44495453     0.18000
N2370       N  0.75546210  0.64961531  0.44693515    -0.81100
H2371       H  0.79118257  0.57453174  0.44993490     0.33700
H2372       H  0.78662644  0.57569522  0.47292925     0.38200
H2373       H  0.74150264  0.64964057  0.44322646     0.33600
H2374       H  0.75640660  0.65695120  0.45933542     0.30300
H2375       H  0.81000548  0.63603528  0.50055459     0.33600
H2376       H  0.78767094  0.63588267  0.49438041     0.30300
H2377       H  0.80935651  0.69500015  0.43412580     0.38200
H2378       H  0.80444800  0.67897592  0.41829549     0.33700
C2379       C  0.90613666  0.27990939  0.58288009    -0.20100
C2380       C  0.90444504  0.26656622  0.59714402     0.36200
C2381       C  0.92047628  0.25938981  0.60529202    -0.26000
C2382       C  0.93800987  0.26489022  0.59921204     0.02600
C2383       C  0.93982103  0.27810215  0.58503378     0.27400
C2384       C  0.92382359  0.28565574  0.57714199    -0.25200
N2385       N  0.88657901  0.26029902  0.60334967    -0.82600
H2386       H  0.91934492  0.24915056  0.61618849     0.13200
C2387       C  0.95437118  0.25636849  0.60768186     0.02600
N2388       N  0.95784548  0.28323227  0.57823812    -0.81100
H2389       H  0.92519789  0.29562479  0.56603022     0.18000
C2390       C  0.96063586  0.23934332  0.60107432    -0.26000
C2391       C  0.97617368  0.23072363  0.60889028     0.36100
C2392       C  0.98577851  0.23966716  0.62331509    -0.20000
C2393       C  0.97902744  0.25651967  0.63015190    -0.25200
C2394       C  0.96330434  0.26486122  0.62260993     0.27400
H2395       H  0.95331148  0.23277505  0.58982646     0.13200
N2396       N  0.98225562  0.21314319  0.60207700    -0.82500
H2397       H  0.98608514  0.26331826  0.64142178     0.18000
N2398       N  0.95610896  0.28166747  0.63032166    -0.81100
H2399       H  0.97399257  0.20886493  0.59105481     0.33700
H2400       H  0.98020144  0.20354100  0.61270332     0.38200
H2401       H  0.96404929  0.28584902  0.64161139     0.33600
H2402       H  0.95736721  0.29201031  0.62032332     0.30300
H2403       H  0.95671228  0.29272545  0.56739487     0.33600
H2404       H  0.96482186  0.28995865  0.58888334     0.30300
H2405       H  0.88122931  0.25184704  0.59298362     0.38200
H2406       H  0.88786617  0.25190275  0.61505955     0.33700
C2407       C  0.75941650  0.40828489  0.57082747    -0.20100
C2408       C  0.75626334  0.38928734  0.57284493     0.36200
C2409       C  0.77147963  0.37711219  0.57247259    -0.26000
C2410       C  0.78964727  0.38374076  0.57016308     0.02600
C2411       C  0.79280187  0.40281264  0.56921466     0.27400
C2412       C  0.77769347  0.41486139  0.56955268    -0.25200
N2413       N  0.73771319  0.38246254  0.57488712    -0.82600
H2414       H  0.76916289  0.36240544  0.57340540     0.13200
C2415       C  0.80526072  0.37066206  0.56800403     0.02600
N2416       N  0.81135277  0.40981862  0.56769514    -0.81100
H2417       H  0.78013224  0.42954561  0.56847549     0.18000
C2418       C  0.81544620  0.37061802  0.55138515    -0.26000
C2419       C  0.82989140  0.35797583  0.54845089     0.36100
C2420       C  0.83406347  0.34496946  0.56239783    -0.20000
C2421       C  0.82442977  0.34568963  0.57937822    -0.25200
C2422       C  0.81007547  0.35841895  0.58231003     0.27400
H2423       H  0.81184572  0.38028664  0.54052918     0.13200
N2424       N  0.84001157  0.35806337  0.53124395    -0.82500
H2425       H  0.82757857  0.33580189  0.59016997     0.18000
N2426       N  0.80018877  0.35882971  0.59964067    -0.81100
H2427       H  0.83500595  0.36831224  0.52239897     0.33700
H2428       H  0.85371152  0.36153584  0.53422790     0.38200
H2429       H  0.80535308  0.34885059  0.60870237     0.33600
H2430       H  0.80270001  0.37160354  0.60577564     0.30300
H2431       H  0.81127608  0.42419635  0.56700069     0.33600
H2432       H  0.81829118  0.40628253  0.57986525     0.30300
H2433       H  0.73779656  0.36813270  0.57628364     0.38200
H2434       H  0.73062479  0.38543224  0.56265651     0.33700
C2435       C  0.81587552  0.46126071  0.76644943    -0.20100
C2436       C  0.79684451  0.45887842  0.76284936     0.36200
C2437       C  0.78435941  0.45794602  0.77779783    -0.26000
C2438       C  0.79055155  0.45956522  0.79608779     0.02600
C2439       C  0.80960555  0.46121549  0.79968325     0.27400
C2440       C  0.82211010  0.46177086  0.78480470    -0.25200
N2441       N  0.79029756  0.45705086  0.74417181    -0.82600
H2442       H  0.76969411  0.45634951  0.77521167     0.13200
C2443       C  0.77692457  0.46024396  0.81137989     0.02600
N2444       N  0.81609170  0.46290152  0.81839672    -0.81100
H2445       H  0.83673321  0.46348761  0.78754742     0.18000
C2446       C  0.77738372  0.44665676  0.82514066    -0.26000
C2447       C  0.76535088  0.44736639  0.84043959     0.36100
C2448       C  0.75223544  0.46181331  0.84169801    -0.20000
C2449       C  0.75178357  0.47535311  0.82776096    -0.25200
C2450       C  0.76412035  0.47480588  0.81269810     0.27400
H2451       H  0.78738383  0.43558279  0.82402610     0.13200
N2452       N  0.76647033  0.43345509  0.85459241    -0.82500
H2453       H  0.74185274  0.48649844  0.82865621     0.18000
N2454       N  0.76387714  0.48906746  0.79884562    -0.81100
H2455       H  0.77622624  0.42341772  0.85102174     0.33700
H2456       H  0.77142474  0.43978467  0.86656998     0.38200
H2457       H  0.75357668  0.49875025  0.80181737     0.33600
H2458       H  0.77650960  0.49603473  0.79949621     0.30300
H2459       H  0.83051551  0.46393655  0.81864105     0.33600
H2460       H  0.81091919  0.47526376  0.82371837     0.30300
H2461       H  0.79132598  0.46995098  0.73782077     0.38200
H2462       H  0.77622770  0.45371763  0.74414149     0.33700
C2463       C  0.87433335  0.52242166  0.74264044    -0.20100
C2464       C  0.89330442  0.52688831  0.74090637     0.36200
C2465       C  0.90012459  0.54274857  0.74959348    -0.26000
C2466       C  0.88855854  0.55426320  0.76010717     0.02600
C2467       C  0.86953565  0.55007095  0.76155115     0.27400
C2468       C  0.86264459  0.53420421  0.75281733    -0.25200
N2469       N  0.90575984  0.51506401  0.73087162    -0.82600
H2470       H  0.91464903  0.54618339  0.74815584     0.13200
C2471       C  0.89677313  0.57067517  0.76926506     0.02600
N2472       N  0.85736629  0.56172922  0.77212243    -0.81100
H2473       H  0.84810273  0.53084886  0.75425817     0.18000
C2474       C  0.88953105  0.58824390  0.76566640    -0.26000
C2475       C  0.89812322  0.60411629  0.77256686     0.36100
C2476       C  0.91447260  0.60253088  0.78308285    -0.20000
C2477       C  0.92126677  0.58492105  0.78731976    -0.25200
C2478       C  0.91252131  0.56899413  0.78066492     0.27400
H2479       H  0.87744237  0.58972025  0.75698060     0.13200
N2480       N  0.89023654  0.62180359  0.76871331    -0.82500
H2481       H  0.93373700  0.58355523  0.79546453     0.18000
N2482       N  0.91969141  0.55109741  0.78525230    -0.81100
H2483       H  0.87672822  0.62195685  0.77398068     0.33700
H2484       H  0.88954441  0.62342930  0.75434051     0.38200
H2485       H  0.93141502  0.55223353  0.79358559     0.33600
H2486       H  0.90963212  0.54430298  0.79316812     0.30300
H2487       H  0.84379191  0.55678519  0.77171091     0.33600
H2488       H  0.86152442  0.56108055  0.78595283     0.30300
H2489       H  0.90239037  0.51606162  0.71684353     0.38200
H2490       H  0.91939531  0.51970346  0.73200435     0.33700
C2491       C  0.82354777  0.46045059  0.67899491    -0.20100
C2492       C  0.81029496  0.44613870  0.68016197     0.36200
C2493       C  0.79692719  0.44434078  0.66622867    -0.26000
C2494       C  0.79677451  0.45603056  0.65074963     0.02600
C2495       C  0.81020666  0.47011395  0.64934991     0.27400
C2496       C  0.82324100  0.47235864  0.66362797    -0.25200
N2497       N  0.80993142  0.43387221  0.69582613    -0.82600
H2498       H  0.78646968  0.43372684  0.66747689     0.13200
C2499       C  0.78252628  0.45322698  0.63612746     0.02600
N2500       N  0.81061916  0.48200868  0.63340414    -0.81100
H2501       H  0.83327379  0.48340068  0.66271095     0.18000
C2502       C  0.77127113  0.46802875  0.63064082    -0.26000
C2503       C  0.75837290  0.46607037  0.61630080     0.36100
C2504       C  0.75644760  0.44899924  0.60730852    -0.20000
C2505       C  0.76678521  0.43389296  0.61360506    -0.25200
C2506       C  0.78001619  0.43586596  0.62767489     0.27400
H2507       H  0.77261183  0.48124506  0.63742148     0.13200
N2508       N  0.74711292  0.48141272  0.61099266    -0.82500
H2509       H  0.76523623  0.42067622  0.60694456     0.18000
N2510       N  0.79130271  0.42043935  0.63298721    -0.81100
H2511       H  0.73957271  0.48567904  0.62261760     0.33700
H2512       H  0.75586281  0.49218526  0.60700138     0.38200
H2513       H  0.78770257  0.40870265  0.62548004     0.33600
H2514       H  0.80498580  0.42354863  0.62938835     0.30300
H2515       H  0.82127347  0.49165236  0.63451408     0.33600
H2516       H  0.81372527  0.47388260  0.62185543     0.30300
H2517       H  0.82159164  0.42540194  0.69482892     0.38200
H2518       H  0.79849005  0.42510163  0.69521653     0.33700
C2519       C  0.89649312  0.57588864  0.27501260    -0.20100
C2520       C  0.89726551  0.58641690  0.25849466     0.36200
C2521       C  0.91428180  0.59361709  0.25243693    -0.26000
C2522       C  0.93052003  0.59079204  0.26255594     0.02600
C2523       C  0.92970679  0.58081918  0.27935324     0.27400
C2524       C  0.91269640  0.57350598  0.28541382    -0.25200
N2525       N  0.88082565  0.58981219  0.24789651    -0.82600
H2526       H  0.91486242  0.60175031  0.23984090     0.13200
C2527       C  0.94795991  0.59939182  0.25582748     0.02600
N2528       N  0.94618788  0.57794876  0.29003802    -0.81100
H2529       H  0.91221913  0.56546336  0.29806666     0.18000
C2530       C  0.95690852  0.61211510  0.26719686    -0.26000
C2531       C  0.97251768  0.62181760  0.26094593     0.36100
C2532       C  0.97954435  0.61856765  0.24288070    -0.20000
C2533       C  0.97060793  0.60574919  0.23148944    -0.25200
C2534       C  0.95493880  0.59603302  0.23782841     0.27400
H2535       H  0.95131096  0.61491470  0.28086228     0.13200
N2536       N  0.98097034  0.63524754  0.27280052    -0.82500
H2537       H  0.97601039  0.60310951  0.21771770     0.18000
N2538       N  0.94611723  0.58272074  0.22613066    -0.81100
H2539       H  0.97437288  0.63561998  0.28572159     0.33700
H2540       H  0.97893959  0.64818338  0.26675035     0.38200
H2541       H  0.95288018  0.58192439  0.21331395     0.33600
H2542       H  0.94755470  0.56983124  0.23244057     0.30300
H2543       H  0.94320317  0.57046119  0.30208167     0.33600
H2544       H  0.95519811  0.56986093  0.28212188     0.30300
H2545       H  0.87206205  0.59801668  0.25597462     0.38200
H2546       H  0.88390468  0.59743492  0.23596458     0.33700
C2547       C  0.82000750  0.55053601  0.33738114    -0.20100
C2548       C  0.81759005  0.53666232  0.35092923     0.36200
C2549       C  0.80333872  0.53847090  0.36423911    -0.26000
C2550       C  0.79137247  0.55375369  0.36413824     0.02600
C2551       C  0.79396855  0.56764132  0.35065686     0.27400
C2552       C  0.80841023  0.56603229  0.33770450    -0.25200
N2553       N  0.82958015  0.52086960  0.35116336    -0.82600
H2554       H  0.80164658  0.52800761  0.37483416     0.13200
C2555       C  0.77685884  0.55571433  0.37877863     0.02600
N2556       N  0.78162230  0.58315774  0.34989419    -0.81100
H2557       H  0.81003928  0.57660279  0.32720582     0.18000
C2558       C  0.77625447  0.57199245  0.38910289    -0.26000
C2559       C  0.76331172  0.57453758  0.40335212     0.36100
C2560       C  0.75092531  0.56025616  0.40812999    -0.20000
C2561       C  0.75112232  0.54407397  0.39739491    -0.25200
C2562       C  0.76377929  0.54176216  0.38261208     0.27400
H2563       H  0.78624150  0.58279457  0.38635970     0.13200
N2564       N  0.76348901  0.59148647  0.41331620    -0.82500
H2565       H  0.74151460  0.53309711  0.40072385     0.18000
N2566       N  0.76343198  0.52534604  0.37154814    -0.81100
H2567       H  0.77679962  0.59341391  0.41855178     0.33700
H2568       H  0.76085863  0.60216024  0.40395227     0.38200
H2569       H  0.75298802  0.51646841  0.37615496     0.33600
H2570       H  0.75999187  0.52922425  0.35803980     0.30300
H2571       H  0.78545034  0.59217111  0.33923195     0.33600
H2572       H  0.76847207  0.57818647  0.34662663     0.30300
H2573       H  0.84294039  0.52551939  0.35405541     0.38200
H2574       H  0.82586863  0.51191909  0.36192236     0.33700
C2575       C  0.46398289  0.25046307  0.46468055    -0.20100
C2576       C  0.45962856  0.25766101  0.48242830     0.36200
C2577       C  0.47298361  0.25795127  0.49638699    -0.26000
C2578       C  0.49092507  0.25138907  0.49321472     0.02600
C2579       C  0.49523734  0.24324008  0.47601888     0.27400
C2580       C  0.48175832  0.24277536  0.46197760    -0.25200
N2581       N  0.44168740  0.26524231  0.48621942    -0.82600
H2582       H  0.46946550  0.26393441  0.50969160     0.13200
C2583       C  0.50529109  0.25458348  0.50753815     0.02600
N2584       N  0.51345326  0.23594444  0.47268547    -0.81100
H2585       H  0.48567839  0.23682633  0.44889958     0.18000
C2586       C  0.51477515  0.23973508  0.51545641    -0.26000
C2587       C  0.52826122  0.24255136  0.52912070     0.36100
C2588       C  0.53276394  0.26063831  0.53499738    -0.20000
C2589       C  0.52281333  0.27541143  0.52710947    -0.25200
C2590       C  0.50934371  0.27258753  0.51346504     0.27400
H2591       H  0.51155866  0.22582786  0.51114894     0.13200
N2592       N  0.53733204  0.22689586  0.53705814    -0.82500
H2593       H  0.52510989  0.28936491  0.53137889     0.18000
N2594       N  0.49977184  0.28803540  0.50547383    -0.81100
H2595       H  0.54380839  0.21958689  0.52637158     0.33700
H2596       H  0.52725847  0.21838988  0.54301518     0.38200
H2597       H  0.50412380  0.30038903  0.51142106     0.33600
H2598       H  0.50340815  0.28868797  0.49144834     0.30300
H2599       H  0.51439648  0.23026384  0.45941921     0.33600
H2600       H  0.52277090  0.24693302  0.47302216     0.30300
H2601       H  0.43592597  0.25807006  0.49741985     0.38200
H2602       H  0.44334485  0.27898541  0.49014400     0.33700
C2603       C  0.18036107  0.26321897  0.46015615    -0.20100
C2604       C  0.18593415  0.25799604  0.44209021     0.36200
C2605       C  0.20035697  0.24520598  0.43989978    -0.26000
C2606       C  0.20920086  0.23755925  0.45532202     0.02600
C2607       C  0.20415623  0.24330520  0.47330139     0.27400
C2608       C  0.18996773  0.25625179  0.47549516    -0.25200
N2609       N  0.17679196  0.26537230  0.42607216    -0.82600
H2610       H  0.20448729  0.24085873  0.42613342     0.13200
C2611       C  0.22271879  0.22250882  0.45277350     0.02600
N2612       N  0.21299226  0.23545124  0.48929258    -0.81100
H2613       H  0.18589495  0.26031949  0.48936054     0.18000
C2614       C  0.24046563  0.22436432  0.46026367    -0.26000
C2615       C  0.25232548  0.20916769  0.46154983     0.36100
C2616       C  0.24611230  0.19185170  0.45541273    -0.20000
C2617       C  0.22919662  0.19041598  0.44615851    -0.25200
C2618       C  0.21733527  0.20562854  0.44481587     0.27400
H2619       H  0.24472902  0.23753605  0.46580261     0.13200
N2620       N  0.27048700  0.21114762  0.46932183    -0.82500
H2621       H  0.22471098  0.17715930  0.44101193     0.18000
N2622       N  0.19954214  0.20377827  0.43621169    -0.81100
H2623       H  0.27287256  0.22479918  0.47316580     0.33700
H2624       H  0.28009188  0.20808296  0.45887719     0.38200
H2625       H  0.19788301  0.19053157  0.43084021     0.33600
H2626       H  0.18943769  0.20538902  0.44650011     0.30300
H2627       H  0.20776305  0.24127297  0.50147797     0.33600
H2628       H  0.20961407  0.22146437  0.48974995     0.30300
H2629       H  0.17977118  0.27944169  0.42547252     0.38200
H2630       H  0.18220011  0.25960482  0.41393418     0.33700
C2631       C  0.25472780  0.12370865  0.51749383    -0.20100
C2632       C  0.26289633  0.10813518  0.52596270     0.36200
C2633       C  0.25428605  0.10010230  0.54148724    -0.26000
C2634       C  0.23768658  0.10716064  0.54861966     0.02600
C2635       C  0.22949809  0.12265992  0.54032040     0.27400
C2636       C  0.23807769  0.13077766  0.52480367    -0.25200
N2637       N  0.27970145  0.10032023  0.51867928    -0.82600
H2638       H  0.26049546  0.08819721  0.54806801     0.13200
C2639       C  0.22939558  0.09832915  0.56514637     0.02600
N2640       N  0.21251196  0.13001155  0.54767592    -0.81100
H2641       H  0.23167347  0.14263892  0.51834780     0.18000
C2642       C  0.23041090  0.10734987  0.58220100    -0.26000
C2643       C  0.22476258  0.09854598  0.59861579     0.36100
C2644       C  0.21801845  0.08026966  0.59787527    -0.20000
C2645       C  0.21604728  0.07168300  0.58058344    -0.25200
C2646       C  0.22169851  0.08056405  0.56418263     0.27400
H2647       H  0.23621816  0.12108645  0.58274711     0.13200
N2648       N  0.22632722  0.10793357  0.61604563    -0.82500
H2649       H  0.21089939  0.05770001  0.57992254     0.18000
N2650       N  0.22014160  0.07148541  0.54659435    -0.81100
H2651       H  0.23183775  0.12111485  0.61416152     0.33700
H2652       H  0.21294377  0.10970693  0.62132081     0.38200
H2653       H  0.21434168  0.05840410  0.54826784     0.33600
H2654       H  0.21088107  0.07910349  0.53855337     0.30300
H2655       H  0.20831252  0.14149767  0.54002055     0.33600
H2656       H  0.20226692  0.12000413  0.54603124     0.30300
H2657       H  0.27666026  0.09471604  0.50572366     0.38200
H2658       H  0.28415943  0.08936733  0.52695632     0.33700
C2659       C  0.32337524  0.17346892  0.45735924    -0.20100
C2660       C  0.32586471  0.19007899  0.46723082     0.36200
C2661       C  0.34053915  0.20187420  0.46242096    -0.26000
C2662       C  0.35278347  0.19756227  0.44793611     0.02600
C2663       C  0.34999258  0.18124622  0.43770013     0.27400
C2664       C  0.33525384  0.16942039  0.44246127    -0.25200
N2665       N  0.31309924  0.19530598  0.48164746    -0.82600
H2666       H  0.34268764  0.21435730  0.47030037     0.13200
C2667       C  0.36915153  0.20963372  0.44460912     0.02600
N2668       N  0.36211424  0.17680133  0.42249682    -0.81100
H2669       H  0.33307246  0.15694816  0.43457249     0.18000
C2670       C  0.38687022  0.20193144  0.44589747    -0.26000
C2671       C  0.40273416  0.21289146  0.44438924     0.36100
C2672       C  0.40106291  0.23210329  0.44179758    -0.20000
C2673       C  0.38338649  0.23981302  0.43980967    -0.25200
C2674       C  0.36736464  0.22875921  0.44126062     0.27400
H2675       H  0.38843130  0.18729853  0.44840634     0.13200
N2676       N  0.42059981  0.20435275  0.44500683    -0.82500
H2677       H  0.38208928  0.25449769  0.43749554     0.18000
N2678       N  0.34931209  0.23684927  0.43945723    -0.81100
H2679       H  0.42173741  0.19734298  0.45761536     0.33700
H2680       H  0.42136754  0.19467073  0.43433705     0.38200
H2681       H  0.35037286  0.25101589  0.43709223     0.33600
H2682       H  0.34317950  0.23119579  0.42769416     0.30300
H2683       H  0.35822519  0.16434861  0.41642526     0.33600
H2684       H  0.36047750  0.18699185  0.41238683     0.30300
H2685       H  0.31538921  0.18661047  0.49295670     0.38200
H2686       H  0.31588684  0.20864069  0.48627061     0.33700
C2687       C  0.75033403  0.19355651  0.55507032    -0.20100
C2688       C  0.76852544  0.19173809  0.56180670     0.36200
C2689       C  0.77933435  0.20757294  0.56389102    -0.26000
C2690       C  0.77216904  0.22503501  0.55970049     0.02600
C2691       C  0.75373732  0.22686394  0.55378308     0.27400
C2692       C  0.74305609  0.21103039  0.55127405    -0.25200
N2693       N  0.77632258  0.17386153  0.56538986    -0.82600
H2694       H  0.79362972  0.20626038  0.56815323     0.13200
C2695       C  0.78485444  0.24088925  0.55956614     0.02600
N2696       N  0.74610179  0.24476745  0.55009293    -0.81100
H2697       H  0.72899812  0.21230450  0.54627562     0.18000
C2698       C  0.78761472  0.25047212  0.54290786    -0.26000
C2699       C  0.80160734  0.26369633  0.54120098     0.36100
C2700       C  0.81342672  0.26687719  0.55637900    -0.20000
C2701       C  0.80980255  0.25812354  0.57340416    -0.25200
C2702       C  0.79551329  0.24524152  0.57518495     0.27400
H2703       H  0.77928228  0.24708612  0.53096128     0.13200
N2704       N  0.80418062  0.27335242  0.52396965    -0.82500
H2705       H  0.81850457  0.26087914  0.58524366     0.18000
N2706       N  0.79207906  0.23617537  0.59259602    -0.81100
H2707       H  0.79463999  0.26888987  0.51411983     0.33700
H2708       H  0.80121831  0.28723103  0.52640094     0.38200
H2709       H  0.80124951  0.24086621  0.60268430     0.33600
H2710       H  0.77880270  0.23993191  0.59701151     0.30300
H2711       H  0.73238547  0.24367967  0.54570689     0.33600
H2712       H  0.74582024  0.25198037  0.56260481     0.30300
H2713       H  0.76962184  0.16846634  0.57706413     0.38200
H2714       H  0.79028602  0.17498306  0.56892439     0.33700
C2715       C  0.73042711  0.10502129  0.57829173    -0.20100
C2716       C  0.74364810  0.10688423  0.59260779     0.36200
C2717       C  0.74916385  0.09126781  0.60268215    -0.26000
C2718       C  0.74185455  0.07386950  0.59880602     0.02600
C2719       C  0.72860396  0.07197785  0.58467567     0.27400
C2720       C  0.72289721  0.08759459  0.57469150    -0.25200
N2721       N  0.75157490  0.12452613  0.59682240    -0.82600
H2722       H  0.75921568  0.09264350  0.61367184     0.13200
C2723       C  0.74817971  0.05770627  0.60966646     0.02600
N2724       N  0.72131661  0.05412233  0.58026374    -0.81100
H2725       H  0.71291964  0.08602933  0.56366921     0.18000
C2726       C  0.73522649  0.04768896  0.62006714    -0.26000
C2727       C  0.74043985  0.03193711  0.63008631     0.36100
C2728       C  0.75910051  0.02590165  0.62946611    -0.20000
C2729       C  0.77214107  0.03631994  0.61944424    -0.25200
C2730       C  0.76687932  0.05215931  0.60955053     0.27400
H2731       H  0.72093606  0.05222119  0.62033635     0.13200
N2732       N  0.72673987  0.02197200  0.64058093    -0.82500
H2733       H  0.78644632  0.03187628  0.61897099     0.18000
N2734       N  0.78036389  0.06242157  0.59907680    -0.81100
H2735       H  0.71362661  0.02779528  0.63883060     0.33700
H2736       H  0.72995394  0.02349215  0.65459496     0.38200
H2737       H  0.79351057  0.05659043  0.60050957     0.33600
H2738       H  0.77690924  0.06134843  0.58507900     0.30300
H2739       H  0.71170635  0.05507690  0.56953587     0.33600
H2740       H  0.73227527  0.04610030  0.57527662     0.30300
H2741       H  0.74100211  0.13280589  0.60219373     0.38200
H2742       H  0.76150154  0.12332486  0.60723665     0.33700
C2743       C  0.66976582  0.17804326  0.54802410    -0.20100
C2744       C  0.66730740  0.19276756  0.53539844     0.36200
C2745       C  0.65284074  0.20544156  0.53821843    -0.26000
C2746       C  0.64096331  0.20405537  0.55358024     0.02600
C2747       C  0.64342661  0.18941963  0.56627646     0.27400
C2748       C  0.65782239  0.17659473  0.56338578    -0.25200
N2749       N  0.67988689  0.19520568  0.52007977    -0.82600
H2750       H  0.65085679  0.21656931  0.52840364     0.13200
C2751       C  0.62557819  0.21761588  0.55572194     0.02600
N2752       N  0.63142097  0.18777247  0.58214541    -0.81100
H2753       H  0.65983444  0.16551090  0.57324328     0.18000
C2754       C  0.60733174  0.21114760  0.55610364    -0.26000
C2755       C  0.59227400  0.22333319  0.55704874     0.36100
C2756       C  0.59547677  0.24253537  0.55770635    -0.20000
C2757       C  0.61371067  0.24907788  0.55778981    -0.25200
C2758       C  0.62883261  0.23680641  0.55657618     0.27400
H2759       H  0.60481997  0.19647243  0.55525253     0.13200
N2760       N  0.57370275  0.21624967  0.55704950    -0.82500
H2761       H  0.61611777  0.26378700  0.55832188     0.18000
N2762       N  0.64744730  0.24373159  0.55601056    -0.81100
H2763       H  0.57374322  0.20190176  0.55602660     0.33700
H2764       H  0.56764897  0.21937074  0.56982391     0.38200
H2765       H  0.64746782  0.25811550  0.55656636     0.33600
H2766       H  0.65415763  0.23907815  0.56792251     0.30300
H2767       H  0.63499957  0.17626569  0.59008494     0.33600
H2768       H  0.63354818  0.19931250  0.59048823     0.30300
H2769       H  0.69287394  0.19833712  0.52554923     0.38200
H2770       H  0.67602206  0.20653530  0.51201985     0.33700
C2771       C  0.50840527  0.10932338  0.26905756    -0.20100
C2772       C  0.51900961  0.09831699  0.28120310     0.36200
C2773       C  0.53552928  0.09022700  0.27471851    -0.26000
C2774       C  0.54172667  0.09302403  0.25646740     0.02600
C2775       C  0.53147027  0.10437677  0.24450074     0.27400
C2776       C  0.51492806  0.11235296  0.25087795    -0.25200
N2777       N  0.51280355  0.09494460  0.29985285    -0.82600
H2778       H  0.54347872  0.08141402  0.28382884     0.13200
C2779       C  0.55850546  0.08324768  0.24978314     0.02600
N2780       N  0.53786624  0.10763155  0.22587783    -0.81100
H2781       H  0.50702111  0.12090428  0.24148761     0.18000
C2782       C  0.55676816  0.07017675  0.23565677    -0.26000
C2783       C  0.57201989  0.05969128  0.22967357     0.36100
C2784       C  0.58950032  0.06247396  0.23794826    -0.20000
C2785       C  0.59126709  0.07601626  0.25174132    -0.25200
C2786       C  0.57596585  0.08648500  0.25766591     0.27400
H2787       H  0.54327741  0.06777293  0.22965668     0.13200
N2788       N  0.56961286  0.04594370  0.21560485    -0.82500
H2789       H  0.60461298  0.07834346  0.25806986     0.18000
N2790       N  0.57803440  0.10035429  0.27166971    -0.81100
H2791       H  0.55610711  0.04623428  0.21049630     0.33700
H2792       H  0.57127794  0.03307325  0.22189459     0.38200
H2793       H  0.59176874  0.10103259  0.27607605     0.33600
H2794       H  0.57501457  0.11307594  0.26558072     0.30300
H2795       H  0.52868316  0.11621456  0.21878805     0.33600
H2796       H  0.55041171  0.11473467  0.22668315     0.30300
H2797       H  0.51370578  0.10738321  0.30704079     0.38200
H2798       H  0.52169510  0.08577609  0.30656792     0.33700
C2799       C  0.45559243  0.16808847  0.32732820    -0.20100
C2800       C  0.46215119  0.18624660  0.32451794     0.36200
C2801       C  0.45949067  0.19958411  0.33838799    -0.26000
C2802       C  0.45080786  0.19524663  0.35528879     0.02600
C2803       C  0.44470910  0.17693497  0.35830191     0.27400
C2804       C  0.44682266  0.16369836  0.34416578    -0.25200
N2805       N  0.47103741  0.19129472  0.30736480    -0.82600
H2806       H  0.46387867  0.21360923  0.33579318     0.13200
C2807       C  0.44791593  0.21002581  0.36952658     0.02600
N2808       N  0.43656284  0.17178468  0.37577736    -0.81100
H2809       H  0.44182531  0.14980792  0.34640421     0.18000
C2810       C  0.43033039  0.21240098  0.37754848    -0.26000
C2811       C  0.42732269  0.22486772  0.39213563     0.36100
C2812       C  0.44205346  0.23579709  0.39873308    -0.20000
C2813       C  0.45926113  0.23456512  0.38955580    -0.25200
C2814       C  0.46245377  0.22167417  0.37531051     0.27400
H2815       H  0.41886347  0.20406964  0.37283801     0.13200
N2816       N  0.40943969  0.22556968  0.40066204    -0.82500
H2817       H  0.47060063  0.24311935  0.39415968     0.18000
N2818       N  0.48060378  0.21993725  0.36724065    -0.81100
H2819       H  0.40607093  0.21230145  0.40519768     0.33700
H2820       H  0.39984530  0.22934871  0.39056542     0.38200
H2821       H  0.48967222  0.22957803  0.37291866     0.33600
H2822       H  0.48570802  0.20693736  0.37077525     0.30300
H2823       H  0.43278547  0.15789570  0.37575350     0.33600
H2824       H  0.44671874  0.17325613  0.38591958     0.30300
H2825       H  0.46112223  0.19050816  0.29690719     0.38200
H2826       H  0.47547758  0.20498141  0.30772010     0.33700
C2827       C  0.56511460  0.18114224  0.74882751    -0.20100
C2828       C  0.55721691  0.19883203  0.74854779     0.36200
C2829       C  0.56062936  0.21095922  0.76312472    -0.26000
C2830       C  0.57141764  0.20548003  0.77824295     0.02600
C2831       C  0.58032345  0.18819958  0.77800015     0.27400
C2832       C  0.57729154  0.17623309  0.76306567    -0.25200
N2833       N  0.54521071  0.20427112  0.73378555    -0.82600
H2834       H  0.55363845  0.22416574  0.76331915     0.13200
C2835       C  0.56992526  0.21633579  0.79543940     0.02600
N2836       N  0.59152128  0.18255485  0.79339140    -0.81100
H2837       H  0.58333972  0.16257650  0.76322568     0.18000
C2838       C  0.56084667  0.20824036  0.81059974    -0.26000
C2839       C  0.55494192  0.21889303  0.82563575     0.36100
C2840       C  0.55819409  0.23802727  0.82542512    -0.20000
C2841       C  0.56863203  0.24590081  0.81100318    -0.25200
C2842       C  0.57444184  0.23519527  0.79585519     0.27400
H2843       H  0.55736348  0.19373899  0.81018447     0.13200
N2844       N  0.54521066  0.21045775  0.84087584    -0.82500
H2845       H  0.57131549  0.26057360  0.81103562     0.18000
N2846       N  0.58419552  0.24345498  0.78055580    -0.81100
H2847       H  0.54381100  0.19629456  0.83876333     0.33700
H2848       H  0.55335169  0.21204248  0.85268960     0.38200
H2849       H  0.58627140  0.25749359  0.78293403     0.33600
H2850       H  0.59730382  0.23739214  0.77989360     0.30300
H2851       H  0.59680276  0.16932801  0.79122104     0.33600
H2852       H  0.60287227  0.19144102  0.79395450     0.30300
H2853       H  0.53234583  0.20770567  0.73951835     0.38200
H2854       H  0.55072853  0.21608880  0.72758931     0.33700
C2855       C  0.57669001  0.09354307  0.72655611    -0.20100
C2856       C  0.59017187  0.09388198  0.74067729     0.36200
C2857       C  0.59694751  0.07734640  0.74806967    -0.26000
C2858       C  0.59058839  0.06033561  0.74170604     0.02600
C2859       C  0.57766554  0.05978969  0.72713471     0.27400
C2860       C  0.57093930  0.07643052  0.71959308    -0.25200
N2861       N  0.59688580  0.11099819  0.74779077    -0.82600
H2862       H  0.60699743  0.07779424  0.75914585     0.13200
C2863       C  0.59731699  0.04334533  0.75094947     0.02600
N2864       N  0.57083332  0.04240407  0.72063744    -0.81100
H2865       H  0.56053944  0.07601035  0.70885777     0.18000
C2866       C  0.58842498  0.03711255  0.76711161    -0.26000
C2867       C  0.59504385  0.02167140  0.77694850     0.36100
C2868       C  0.61078808  0.01208981  0.77027422    -0.20000
C2869       C  0.61978449  0.01865728  0.75420364    -0.25200
C2870       C  0.61327657  0.03420144  0.74455839     0.27400
H2871       H  0.57639196  0.04449882  0.77217835     0.13200
N2872       N  0.58582075  0.01577594  0.79362624    -0.82500
H2873       H  0.63189554  0.01152430  0.74897932     0.18000
N2874       N  0.62303980  0.04098504  0.72852905    -0.81100
H2875       H  0.57428852  0.02406059  0.79635101     0.33700
H2876       H  0.59497356  0.01780159  0.80459517     0.38200
H2877       H  0.63475898  0.03295145  0.72586128     0.33600
H2878       H  0.61440086  0.03951815  0.71707931     0.30300
H2879       H  0.56108873  0.04441059  0.71016984     0.33600
H2880       H  0.58188500  0.03530517  0.71459816     0.30300
H2881       H  0.59408290  0.11136871  0.76201194     0.38200
H2882       H  0.61124298  0.11131149  0.74595987     0.33700
C2883       C  0.54844004  0.17523669  0.66877572    -0.20100
C2884       C  0.55485862  0.17137475  0.65075696     0.36200
C2885       C  0.55645116  0.18572004  0.63766904    -0.26000
C2886       C  0.55215253  0.20402423  0.64240523     0.02600
C2887       C  0.54618979  0.20796718  0.66059968     0.27400
C2888       C  0.54407065  0.19351760  0.67345186    -0.25200
N2889       N  0.55936553  0.15289771  0.64557342    -0.82600
H2890       H  0.56099892  0.18254202  0.62370650     0.13200
C2891       C  0.55380375  0.21888008  0.62818390     0.02600
N2892       N  0.54268456  0.22667695  0.66604908    -0.81100
H2893       H  0.53951785  0.19663055  0.68743151     0.18000
C2894       C  0.53821933  0.22950397  0.62362042    -0.26000
C2895       C  0.53898995  0.24272729  0.60938005     0.36100
C2896       C  0.55554127  0.24527336  0.59922117    -0.20000
C2897       C  0.57142479  0.23551525  0.60466473    -0.25200
C2898       C  0.57072580  0.22236686  0.61900058     0.27400
H2899       H  0.52525264  0.22724418  0.63088639     0.13200
N2900       N  0.52295827  0.25359643  0.60535664    -0.82500
H2901       H  0.58428073  0.23744024  0.59715395     0.18000
N2902       N  0.58708267  0.21235445  0.62412694    -0.81100
H2903       H  0.51921351  0.26071717  0.61737776     0.33700
H2904       H  0.51213914  0.24467071  0.60204297     0.38200
H2905       H  0.59836626  0.21642317  0.61595881     0.33600
H2906       H  0.59024746  0.21591238  0.63776647     0.30300
H2907       H  0.53851657  0.22725899  0.67992845     0.33600
H2908       H  0.55521145  0.23382519  0.66511696     0.30300
H2909       H  0.57313331  0.15270113  0.64104939     0.38200
H2910       H  0.55101958  0.14926127  0.63438524     0.33700
C2911       C  0.45523891  0.46618181  0.26193028    -0.20100
C2912       C  0.47228457  0.46587741  0.27154738     0.36200
C2913       C  0.48354929  0.48153506  0.27179071    -0.26000
C2914       C  0.47842136  0.49749551  0.26228052     0.02600
C2915       C  0.46192366  0.49793949  0.25219258     0.27400
C2916       C  0.45051031  0.48234334  0.25205570    -0.25200
N2917       N  0.47816474  0.44967566  0.28124488    -0.82600
H2918       H  0.49639359  0.48124207  0.27946594     0.13200
C2919       C  0.49035503  0.51382238  0.26334876     0.02600
N2920       N  0.45681243  0.51431288  0.24220137    -0.81100
H2921       H  0.43804089  0.48331216  0.24411726     0.18000
C2922       C  0.50154645  0.51855463  0.24822750    -0.26000
C2923       C  0.51400826  0.53332498  0.24933386     0.36100
C2924       C  0.51597643  0.54287688  0.26635820    -0.20000
C2925       C  0.50295721  0.53930485  0.28058998    -0.25200
C2926       C  0.49038290  0.52473181  0.27933357     0.27400
H2927       H  0.50066825  0.51055333  0.23561396     0.13200
N2928       N  0.52482474  0.53839932  0.23334370    -0.82500
H2929       H  0.50224827  0.54783364  0.29277087     0.18000
N2930       N  0.47774747  0.52079368  0.29429319    -0.81100
H2931       H  0.52044747  0.55145539  0.22915010     0.33700
H2932       H  0.52216556  0.52955271  0.22227539     0.38200
H2933       H  0.47965762  0.53000095  0.30522427     0.33600
H2934       H  0.46433528  0.52297482  0.28940038     0.30300
H2935       H  0.44431780  0.51240396  0.23524630     0.33600
H2936       H  0.45451323  0.52474184  0.25190190     0.30300
H2937       H  0.48002318  0.45309370  0.29517161     0.38200
H2938       H  0.49096715  0.44561783  0.27580813     0.33700
C2939       C  0.24496295  0.46097612  0.19036242    -0.20100
C2940       C  0.23955446  0.47827171  0.19754830     0.36200
C2941       C  0.22603848  0.47904251  0.21157524    -0.26000
C2942       C  0.21788662  0.46296466  0.21859465     0.02600
C2943       C  0.22379963  0.44568018  0.21202293     0.27400
C2944       C  0.23714888  0.44485644  0.19780733    -0.25200
N2945       N  0.24731714  0.49501670  0.19022387    -0.82600
H2946       H  0.22142930  0.49228478  0.21672718     0.13200
C2947       C  0.20272213  0.46456905  0.23239053     0.02600
N2948       N  0.21620308  0.42908869  0.21983385    -0.81100
H2949       H  0.24145005  0.43158017  0.19249187     0.18000
C2950       C  0.18494869  0.45846007  0.22774212    -0.26000
C2951       C  0.16998866  0.46060170  0.24008475     0.36100
C2952       C  0.17298337  0.46892442  0.25749939    -0.20000
C2953       C  0.19079368  0.47506849  0.26205662    -0.25200
C2954       C  0.20572593  0.47282732  0.24973688     0.27400
H2955       H  0.18270559  0.45232587  0.21427228     0.13200
N2956       N  0.15178230  0.45466939  0.23484217    -0.82500
H2957       H  0.19315142  0.48135584  0.27542906     0.18000
N2958       N  0.22398133  0.47873546  0.25479708    -0.81100
H2959       H  0.15205470  0.44864155  0.22170468     0.33700
H2960       H  0.14345944  0.46640060  0.23377830     0.38200
H2961       H  0.22386463  0.48454875  0.26802909     0.33600
H2962       H  0.23236088  0.46701663  0.25552828     0.30300
H2963       H  0.22206219  0.41751590  0.21352009     0.33600
H2964       H  0.22003673  0.42859493  0.23377350     0.30300
H2965       H  0.24286683  0.49635807  0.17652992     0.38200
H2966       H  0.24215342  0.50644798  0.19735548     0.33700
C2967       C  0.26159362  0.50730195  0.12065765    -0.20100
C2968       C  0.24249142  0.51060387  0.11774647     0.36200
C2969       C  0.23685994  0.52682484  0.10878942    -0.26000
C2970       C  0.24971438  0.53996146  0.10267941     0.02600
C2971       C  0.26875065  0.53685846  0.10575643     0.27400
C2972       C  0.27447109  0.52060112  0.11474771    -0.25200
N2973       N  0.22878496  0.49752690  0.12378949    -0.82600
H2974       H  0.22223720  0.52938477  0.10676812     0.13200
C2975       C  0.24281174  0.55698257  0.09341817     0.02600
N2976       N  0.28220327  0.55009736  0.09953383    -0.81100
H2977       H  0.28909420  0.51822316  0.11694276     0.18000
C2978       C  0.24761980  0.57428491  0.10052833    -0.26000
C2979       C  0.24085008  0.59063668  0.09254196     0.36100
C2980       C  0.22883350  0.58966215  0.07718207    -0.20000
C2981       C  0.22378871  0.57234794  0.07029038    -0.25200
C2982       C  0.23082441  0.55603255  0.07805702     0.27400
H2983       H  0.25651954  0.57502057  0.11252792     0.13200
N2984       N  0.24601997  0.60817525  0.10008849    -0.82500
H2985       H  0.21481251  0.57154600  0.05835134     0.18000
N2986       N  0.22609440  0.53849973  0.07020200    -0.81100
H2987       H  0.25507184  0.60646839  0.11120888     0.33700
H2988       H  0.23404111  0.61429131  0.10545368     0.38200
H2989       H  0.21711215  0.54017446  0.05902124     0.33600
H2990       H  0.23824533  0.53268444  0.06488784     0.30300
H2991       H  0.29557269  0.54582806  0.10297458     0.33600
H2992       H  0.28164721  0.55057593  0.08507439     0.30300
H2993       H  0.22859469  0.49768864  0.13827277     0.38200
H2994       H  0.21556768  0.50157407  0.11959244     0.33700
C2995       C  0.32701368  0.44479528  0.17329073    -0.20100
C2996       C  0.32846418  0.42764413  0.18260923     0.36200
C2997       C  0.34213279  0.42514283  0.19617452    -0.26000
C2998       C  0.35469220  0.43914334  0.20031091     0.02600
C2999       C  0.35388005  0.45594902  0.19051411     0.27400
C3000       C  0.34003354  0.45862448  0.17714223    -0.25200
N3001       N  0.31593559  0.41287123  0.17851638    -0.82600
H3002       H  0.34313310  0.41213101  0.20347691     0.13200
C3003       C  0.36919598  0.43580315  0.21436638     0.02600
N3004       N  0.36697253  0.47030420  0.19440606    -0.81100
H3005       H  0.33911822  0.47176179  0.17007105     0.18000
C3006       C  0.38762009  0.43489535  0.20846024    -0.26000
C3007       C  0.40196853  0.43329534  0.22124951     0.36100
C3008       C  0.39797362  0.43274589  0.24038669    -0.20000
C3009       C  0.37948911  0.43260085  0.24635742    -0.25200
C3010       C  0.36495968  0.43406155  0.23344080     0.27400
H3011       H  0.39090741  0.43582981  0.19381657     0.13200
N3012       N  0.42070985  0.43271676  0.21476503    -0.82500
H3013       H  0.37644841  0.43221772  0.26106930     0.18000
N3014       N  0.34601895  0.43429868  0.23959761    -0.81100
H3015       H  0.42199474  0.42155117  0.20573195     0.33700
H3016       H  0.42330924  0.44473446  0.20720154     0.38200
H3017       H  0.34527778  0.43280608  0.25399354     0.33600
H3018       H  0.34056938  0.44726958  0.23648568     0.30300
H3019       H  0.36458641  0.48176291  0.18595741     0.33600
H3020       H  0.36474160  0.47457517  0.20805960     0.30300
H3021       H  0.31867206  0.40864086  0.16493858     0.38200
H3022       H  0.31852342  0.40148274  0.18700169     0.33700
C3023       C  0.53307485  0.81655733  0.26099093    -0.20100
C3024       C  0.54994581  0.80665742  0.26089146     0.36200
C3025       C  0.55269806  0.79275582  0.24766635    -0.26000
C3026       C  0.53900607  0.78875164  0.23466012     0.02600
C3027       C  0.52241698  0.79887996  0.23445564     0.27400
C3028       C  0.51950981  0.81249322  0.24778796    -0.25200
N3029       N  0.56415969  0.81067483  0.27411923    -0.82600
H3030       H  0.56546769  0.78492589  0.24753456     0.13200
C3031       C  0.54199230  0.77400867  0.22106284     0.02600
N3032       N  0.50872623  0.79543284  0.22050360    -0.81100
H3033       H  0.50670450  0.82025555  0.24756706     0.18000
C3034       C  0.53045785  0.75855558  0.22175004    -0.26000
C3035       C  0.53064020  0.74564153  0.20740045     0.36100
C3036       C  0.54249718  0.74849067  0.19203697    -0.20000
C3037       C  0.55508414  0.76317922  0.19212374    -0.25200
C3038       C  0.55481592  0.77613918  0.20647625     0.27400
H3039       H  0.52084241  0.75695915  0.23322309     0.13200
N3040       N  0.51859917  0.72990264  0.20819372    -0.82500
H3041       H  0.56434827  0.76519703  0.18044015     0.18000
N3042       N  0.56686130  0.79186927  0.20589227    -0.81100
H3043       H  0.51066826  0.73002642  0.22035520     0.33700
H3044       H  0.52695238  0.71815953  0.20883086     0.38200
H3045       H  0.57551205  0.79131703  0.19424712     0.33600
H3046       H  0.55859685  0.80358615  0.20433473     0.30300
H3047       H  0.49728259  0.80407230  0.22231402     0.33600
H3048       H  0.51458113  0.79886735  0.20767202     0.30300
H3049       H  0.55909527  0.80701400  0.28721099     0.38200
H3050       H  0.57583413  0.80248298  0.27172547     0.33700
C3051       C  0.60294672  0.77131935  0.01406088    -0.20100
C3052       C  0.58876982  0.77993569  0.02451267     0.36200
C3053       C  0.58237515  0.77156068  0.04098814    -0.26000
C3054       C  0.58989938  0.75488603  0.04729087     0.02600
C3055       C  0.60430788  0.74651844  0.03719519     0.27400
C3056       C  0.61066685  0.75478435  0.02071909    -0.25200
N3057       N  0.58083353  0.79703283  0.01839823    -0.82600
H3058       H  0.57140359  0.77800686  0.04895707     0.13200
C3059       C  0.58263965  0.74644141  0.06462306     0.02600
N3060       N  0.61234010  0.72959953  0.04368720    -0.81100
H3061       H  0.62157643  0.74807415  0.01289807     0.18000
C3062       C  0.57091555  0.73110586  0.06366596    -0.26000
C3063       C  0.56268995  0.72360764  0.07976519     0.36100
C3064       C  0.56668499  0.73139406  0.09726255    -0.20000
C3065       C  0.57897957  0.74638780  0.09810748    -0.25200
C3066       C  0.58695762  0.75397116  0.08199517     0.27400
H3067       H  0.56768506  0.72538300  0.05022115     0.13200
N3068       N  0.54986418  0.70858308  0.07825441    -0.82500
H3069       H  0.58215297  0.75246772  0.11140040     0.18000
N3070       N  0.59925042  0.76946648  0.08313744    -0.81100
H3071       H  0.54891896  0.70418703  0.06451186     0.33700
H3072       H  0.53676520  0.71358523  0.08187173     0.38200
H3073       H  0.60091071  0.77351072  0.09691604     0.33600
H3074       H  0.61225996  0.76516996  0.07842984     0.30300
H3075       H  0.62272166  0.72512818  0.03460307     0.33600
H3076       H  0.61878303  0.73233621  0.05631194     0.30300
H3077       H  0.59116598  0.80706205  0.01914076     0.38200
H3078       H  0.57028057  0.80122908  0.02742004     0.33700
C3079       C  0.54260074  0.67064328  0.17674133    -0.20100
C3080       C  0.52670748  0.66225838  0.18470988     0.36200
C3081       C  0.52872227  0.64945486  0.19923331    -0.26000
C3082       C  0.54618472  0.64448396  0.20585473     0.02600
C3083       C  0.56210254  0.65235897  0.19773642     0.27400
C3084       C  0.56016638  0.66545213  0.18336413    -0.25200
N3085       N  0.50849838  0.66695900  0.17833138    -0.82600
H3086       H  0.51656075  0.64313510  0.20536881     0.13200
C3087       C  0.54738750  0.63025774  0.22066609     0.02600
N3088       N  0.58012627  0.64700223  0.20411619    -0.81100
H3089       H  0.57242924  0.67180983  0.17749903     0.18000
C3090       C  0.54985055  0.61184926  0.21554336    -0.26000
C3091       C  0.54893408  0.59769471  0.22877405     0.36100
C3092       C  0.54603556  0.60193475  0.24765821    -0.20000
C3093       C  0.54405765  0.62040066  0.25291800    -0.25200
C3094       C  0.54445088  0.63463031  0.23952300     0.27400
H3095       H  0.55183260  0.60838910  0.20107027     0.13200
N3096       N  0.55049678  0.57893306  0.22290333    -0.82500
H3097       H  0.54154988  0.62363989  0.26735907     0.18000
N3098       N  0.54130278  0.65341470  0.24485984    -0.81100
H3099       H  0.56311584  0.57738196  0.21593535     0.33700
H3100       H  0.53993596  0.57636809  0.21342084     0.38200
H3101       H  0.53904966  0.65430460  0.25915261     0.33600
H3102       H  0.55340861  0.66077581  0.24199938     0.30300
H3103       H  0.59043174  0.65395351  0.19667318     0.33600
H3104       H  0.58128296  0.65119365  0.21790511     0.30300
H3105       H  0.50728373  0.66196850  0.16482169     0.38200
H3106       H  0.49836615  0.66020944  0.18619376     0.33700
C3107       C  0.44576806  0.17107061  0.24280173    -0.20100
C3108       C  0.45495948  0.17006894  0.22551193     0.36200
C3109       C  0.45338401  0.18473316  0.21308008    -0.26000
C3110       C  0.44269625  0.20017148  0.21749843     0.02600
C3111       C  0.43224013  0.20057027  0.23399072     0.27400
C3112       C  0.43381318  0.18586431  0.24656029    -0.25200
N3113       N  0.46613337  0.15435067  0.22078782    -0.82600
H3114       H  0.46108804  0.18449496  0.20014950     0.13200
C3115       C  0.44456043  0.21650029  0.20561515     0.02600
N3116       N  0.42067070  0.21614059  0.23814852    -0.81100
H3117       H  0.42648931  0.18642094  0.25968708     0.18000
C3118       C  0.43000005  0.22181582  0.19408710    -0.26000
C3119       C  0.43243504  0.23600444  0.18103454     0.36100
C3120       C  0.44970074  0.24511991  0.17994342    -0.20000
C3121       C  0.46394758  0.24012452  0.19207980    -0.25200
C3122       C  0.46157040  0.22586773  0.20486622     0.27400
H3123       H  0.41702710  0.21437182  0.19477421     0.13200
N3124       N  0.41771713  0.24067814  0.16856333    -0.82500
H3125       H  0.47714591  0.24716610  0.19140151     0.18000
N3126       N  0.47648888  0.22049590  0.21683656    -0.81100
H3127       H  0.40589429  0.23290723  0.17154168     0.33700
H3128       H  0.42195534  0.23690692  0.15522545     0.38200
H3129       H  0.48819460  0.22860542  0.21435919     0.33600
H3130       H  0.47230782  0.22309522  0.23046957     0.30300
H3131       H  0.41383428  0.21420581  0.25080766     0.33600
H3132       H  0.42925981  0.22759069  0.23975408     0.30300
H3133       H  0.45733000  0.14296994  0.21998071     0.38200
H3134       H  0.47210681  0.15596798  0.20765767     0.33700
C3135       C  0.51122494  0.26498285  0.11590053    -0.20100
C3136       C  0.52632223  0.27641132  0.11105554     0.36200
C3137       C  0.54196332  0.26865698  0.10227595    -0.26000
C3138       C  0.54281570  0.24977434  0.09806632     0.02600
C3139       C  0.52776832  0.23838367  0.10299627     0.27400
C3140       C  0.51229922  0.24605069  0.11198429    -0.25200
N3141       N  0.52577286  0.29579187  0.11497758    -0.82600
H3142       H  0.55358989  0.27739107  0.09867826     0.13200
C3143       C  0.55924826  0.24215365  0.08802410     0.02600
N3144       N  0.52806050  0.21911675  0.09847930    -0.81100
H3145       H  0.50079186  0.23716137  0.11557632     0.18000
C3146       C  0.56870883  0.22683724  0.09527573    -0.26000
C3147       C  0.58380328  0.21885013  0.08578731     0.36100
C3148       C  0.58988275  0.22661993  0.06886943    -0.20000
C3149       C  0.58055099  0.24207280  0.06176737    -0.25200
C3150       C  0.56515277  0.24970152  0.07095622     0.27400
H3151       H  0.56428363  0.22109115  0.10843630     0.13200
N3152       N  0.59304113  0.20304333  0.09338935    -0.82500
H3153       H  0.58504672  0.24801062  0.04871379     0.18000
N3154       N  0.55525075  0.26484786  0.06281818    -0.81100
H3155       H  0.58663833  0.19884678  0.10572039     0.33700
H3156       H  0.60647274  0.20704457  0.09684144     0.38200
H3157       H  0.56134674  0.26878220  0.05025242     0.33600
H3158       H  0.54192788  0.26022644  0.05971465     0.30300
H3159       H  0.51598054  0.21263352  0.10312467     0.33600
H3160       H  0.52818176  0.21801948  0.08404068     0.30300
H3161       H  0.52582936  0.29730177  0.12937734     0.38200
H3162       H  0.53773287  0.30227759  0.11003042     0.33700
C3163       C  0.45797325  0.33020303  0.17343160    -0.20100
C3164       C  0.44552907  0.34486849  0.17008546     0.36200
C3165       C  0.44264988  0.35832322  0.18385835    -0.26000
C3166       C  0.45192635  0.35749093  0.20088312     0.02600
C3167       C  0.46443546  0.34300353  0.20419343     0.27400
C3168       C  0.46733654  0.32955883  0.19047973    -0.25200
N3169       N  0.43578079  0.34604899  0.15282833    -0.82600
H3170       H  0.43315095  0.36958647  0.18131627     0.13200
C3171       C  0.44924844  0.37245318  0.21471491     0.02600
N3172       N  0.47419865  0.34206017  0.22146579    -0.81100
H3173       H  0.47681568  0.31834619  0.19327486     0.18000
C3174       C  0.44138593  0.36860550  0.23214566    -0.26000
C3175       C  0.43899007  0.38255557  0.24549581     0.36100
C3176       C  0.44440403  0.40079854  0.24141222    -0.20000
C3177       C  0.45259198  0.40440027  0.22396955    -0.25200
C3178       C  0.45509333  0.39049656  0.21069804     0.27400
H3179       H  0.43711302  0.35467291  0.23542014     0.13200
N3180       N  0.43151420  0.37796093  0.26331211    -0.82500
H3181       H  0.45663808  0.41827408  0.22030222     0.18000
N3182       N  0.46359227  0.39462025  0.19310639    -0.81100
H3183       H  0.44001562  0.36795460  0.26928688     0.33700
H3184       H  0.41843470  0.37215971  0.26138111     0.38200
H3185       H  0.46701212  0.40857155  0.19221942     0.33600
H3186       H  0.47605147  0.38731538  0.19238347     0.30300
H3187       H  0.48280649  0.33049383  0.22181382     0.33600
H3188       H  0.48283935  0.35356872  0.22218340     0.30300
H3189       H  0.44558167  0.34848095  0.14239720     0.38200
H3190       H  0.42683001  0.35736280  0.15280516     0.33700
C3191       C  0.73827780  0.55982427  0.18496196    -0.20100
C3192       C  0.73401159  0.56834189  0.20207875     0.36200
C3193       C  0.74765099  0.56925682  0.21581305    -0.26000
C3194       C  0.76531735  0.56200030  0.21263019     0.02600
C3195       C  0.77001446  0.55491157  0.19509121     0.27400
C3196       C  0.75643774  0.55388089  0.18142024    -0.25200
N3197       N  0.71572889  0.57526899  0.20579331    -0.82600
H3198       H  0.74426053  0.57480121  0.22933608     0.13200
C3199       C  0.77812801  0.55967062  0.22824421     0.02600
N3200       N  0.78838478  0.54808301  0.19157188    -0.81100
H3201       H  0.75989544  0.54764666  0.16822653     0.18000
C3202       C  0.78295697  0.54172156  0.23335110    -0.26000
C3203       C  0.79651736  0.53841230  0.24667499     0.36100
C3204       C  0.80506494  0.55351066  0.25550402    -0.20000
C3205       C  0.79942039  0.57153300  0.25108055    -0.25200
C3206       C  0.78603836  0.57476990  0.23740686     0.27400
H3207       H  0.77656241  0.53021253  0.22632651     0.13200
N3208       N  0.80206334  0.51980326  0.25064964    -0.82500
H3209       H  0.80582366  0.58312822  0.25792929     0.18000
N3210       N  0.78078882  0.59322565  0.23248028    -0.81100
H3211       H  0.79381659  0.51041331  0.24349976     0.33700
H3212       H  0.81550750  0.51809874  0.24549288     0.38200
H3213       H  0.78787734  0.60277105  0.24059826     0.33600
H3214       H  0.78498448  0.59549432  0.21877788     0.30300
H3215       H  0.78952526  0.54304968  0.17805638     0.33600
H3216       H  0.79747426  0.55922303  0.19251080     0.30300
H3217       H  0.71350578  0.58639312  0.19685807     0.38200
H3218       H  0.71481882  0.58049359  0.21924928     0.33700
C3219       C  0.70762436  0.57645138  0.10246162    -0.20100
C3220       C  0.71369977  0.59489506  0.10377018     0.36200
C3221       C  0.72120538  0.60365127  0.08804858    -0.26000
C3222       C  0.72276297  0.59439176  0.07109543     0.02600
C3223       C  0.71607487  0.57624296  0.06957867     0.27400
C3224       C  0.70850666  0.56747490  0.08526642    -0.25200
N3225       N  0.71248141  0.60458259  0.12107683    -0.82600
H3226       H  0.72625377  0.61765019  0.08908678     0.13200
C3227       C  0.73187130  0.60377899  0.05519822     0.02600
N3228       N  0.71725616  0.56673114  0.05217754    -0.81100
H3229       H  0.70393802  0.55331682  0.08421137     0.18000
C3230       C  0.74868624  0.59691644  0.04828042    -0.26000
C3231       C  0.75807806  0.60578595  0.03362446     0.36100
C3232       C  0.75026461  0.62172157  0.02550743    -0.20000
C3233       C  0.73337743  0.62850313  0.03252378    -0.25200
C3234       C  0.72415163  0.61974020  0.04729256     0.27400
H3235       H  0.75459875  0.58468732  0.05452152     0.13200
N3236       N  0.77522805  0.59837656  0.02674876    -0.82500
H3237       H  0.72723823  0.64065681  0.02636339     0.18000
N3238       N  0.70687986  0.62686082  0.05420265    -0.81100
H3239       H  0.77847051  0.58608786  0.03357109     0.33700
H3240       H  0.78567874  0.60769747  0.03013658     0.38200
H3241       H  0.70309546  0.63874410  0.04695104     0.33600
H3242       H  0.69667569  0.61702720  0.05158544     0.30300
H3243       H  0.71190791  0.55341242  0.05342920     0.33600
H3244       H  0.70880608  0.57371615  0.04278508     0.30300
H3245       H  0.71774515  0.61792190  0.11970782     0.38200
H3246       H  0.69844971  0.60595692  0.12440384     0.33700
C3247       C  0.65218660  0.54661619  0.18345842    -0.20100
C3248       C  0.63548844  0.55605513  0.17979458     0.36200
C3249       C  0.62224351  0.55805291  0.19406644    -0.26000
C3250       C  0.62564627  0.55156971  0.21210227     0.02600
C3251       C  0.64246245  0.54249412  0.21582505     0.27400
C3252       C  0.65533473  0.53980584  0.20142841    -0.25200
N3253       N  0.63189569  0.56341810  0.16166821    -0.82600
H3254       H  0.60926411  0.56493635  0.19119066     0.13200
C3255       C  0.61154882  0.55449728  0.22697123     0.02600
N3256       N  0.64660417  0.53644570  0.23432624    -0.81100
H3257       H  0.66826601  0.53290841  0.20447423     0.18000
C3258       C  0.60481515  0.53937257  0.23710414    -0.26000
C3259       C  0.59087448  0.54152624  0.25061632     0.36100
C3260       C  0.58283239  0.55906793  0.25345328    -0.20000
C3261       C  0.59047731  0.57433247  0.24418713    -0.25200
C3262       C  0.60479510  0.57225042  0.23109133     0.27400
H3263       H  0.61029009  0.52577276  0.23427494     0.13200
N3264       N  0.58486951  0.52597896  0.26143761    -0.82500
H3265       H  0.58472732  0.58789751  0.24643132     0.18000
N3266       N  0.61236944  0.58808142  0.22178310    -0.81100
H3267       H  0.59223004  0.51414519  0.25770620     0.33700
H3268       H  0.58808939  0.52869122  0.27526396     0.38200
H3269       H  0.60581564  0.60011697  0.22627459     0.33600
H3270       H  0.62624940  0.58917563  0.22563569     0.30300
H3271       H  0.65956586  0.53006834  0.23476483     0.33600
H3272       H  0.64748090  0.54815138  0.24267557     0.30300
H3273       H  0.64083382  0.57455363  0.15962730     0.38200
H3274       H  0.61850948  0.56884349  0.16104932     0.33700
C3275       C  0.02693535  0.25325930  0.97597032    -0.20100
C3276       C  0.00914686  0.24547863  0.97325297     0.36200
C3277       C  0.99557529  0.24678186  0.98708039    -0.26000
C3278       C  0.99919864  0.25562400  0.00383105     0.02600
C3279       C  0.01684268  0.26317747  0.00694508     0.27400
C3280       C  0.03053047  0.26190362  0.99305888    -0.25200
N3281       N  0.00479790  0.23607019  0.95640250    -0.82600
H3282       H  0.98212450  0.24063095  0.98478161     0.13200
C3283       C  0.98451500  0.25619964  0.01820738     0.02600
N3284       N  0.02075415  0.27216356  0.02421008    -0.81100
H3285       H  0.04387988  0.26772938  0.99594466     0.18000
C3286       C  0.98768745  0.24771266  0.03528478    -0.26000
C3287       C  0.97387572  0.24707530  0.04891008     0.36100
C3288       C  0.95627113  0.25502520  0.04556972    -0.20000
C3289       C  0.95322242  0.26360069  0.02829737    -0.25200
C3290       C  0.96721222  0.26439855  0.01470352     0.27400
H3291       H  0.00092380  0.24123734  0.03796782     0.13200
N3292       N  0.97775786  0.23811533  0.06617354    -0.82500
H3293       H  0.94003669  0.26960124  0.02497414     0.18000
N3294       N  0.96394491  0.27350377  0.99731280    -0.81100
H3295       H  0.98150887  0.22449088  0.06341382     0.33700
H3296       H  0.98907881  0.24469411  0.07220337     0.38200
H3297       H  0.95049719  0.27877829  0.99682008     0.33600
H3298       H  0.97288701  0.28479325  0.99652930     0.30300
H3299       H  0.03440579  0.27688663  0.02444058     0.33600
H3300       H  0.01226218  0.28379380  0.02508826     0.30300
H3301       H  0.00094196  0.22258777  0.95974052     0.38200
H3302       H  0.99342149  0.24260752  0.95038112     0.33700
C3303       C  0.73543741  0.31975232  0.07011049    -0.20100
C3304       C  0.71838620  0.32082550  0.07974376     0.36200
C3305       C  0.70584189  0.30615326  0.07871066    -0.26000
C3306       C  0.71018113  0.29046329  0.06834914     0.02600
C3307       C  0.72768037  0.28879336  0.05986474     0.27400
C3308       C  0.74013478  0.30349743  0.06076598    -0.25200
N3309       N  0.71337089  0.33704450  0.08984703    -0.82600
H3310       H  0.69236814  0.30736679  0.08526951     0.13200
C3311       C  0.69573814  0.27678929  0.06439528     0.02600
N3312       N  0.73239192  0.27237069  0.04980782    -0.81100
H3313       H  0.75335335  0.30244653  0.05368681     0.18000
C3314       C  0.68915432  0.27578541  0.04626309    -0.26000
C3315       C  0.67656848  0.26217160  0.04107659     0.36100
C3316       C  0.67080477  0.24892073  0.05432658    -0.20000
C3317       C  0.67692945  0.25039373  0.07271927    -0.25200
C3318       C  0.68928947  0.26436562  0.07792277     0.27400
H3319       H  0.69399842  0.28568737  0.03607405     0.13200
N3320       N  0.66968411  0.26184440  0.02241972    -0.82500
H3321       H  0.67228848  0.24049380  0.08298366     0.18000
N3322       N  0.69547016  0.26588805  0.09673908    -0.81100
H3323       H  0.67580441  0.27221198  0.01440048     0.33700
H3324       H  0.65555647  0.26492247  0.02303167     0.38200
H3325       H  0.68931532  0.25573178  0.10500557     0.33600
H3326       H  0.70970485  0.26334654  0.09684534     0.30300
H3327       H  0.74573898  0.27336497  0.04423499     0.33600
H3328       H  0.73261660  0.26147841  0.05930022     0.30300
H3329       H  0.70113773  0.34227973  0.08424143     0.38200
H3330       H  0.71068272  0.33321980  0.10357495     0.33700
C3331       C  0.75318685  0.38772477  0.01302103    -0.20100
C3332       C  0.76260520  0.40264968  0.00452590     0.36200
C3333       C  0.75517433  0.41091286  0.98849873    -0.26000
C3334       C  0.73872444  0.40447576  0.98060974     0.02600
C3335       C  0.72943898  0.38950635  0.98885266     0.27400
C3336       C  0.73675789  0.38126852  0.00489896    -0.25200
N3337       N  0.77949841  0.40957305  0.01225549    -0.82600
H3338       H  0.76228763  0.42239529  0.98202752     0.13200
C3339       C  0.73142952  0.41347483  0.96361064     0.02600
N3340       N  0.71249546  0.38287045  0.98097581    -0.81100
H3341       H  0.72939229  0.36988180  0.01124401     0.18000
C3342       C  0.73362364  0.40473082  0.94644957    -0.26000
C3343       C  0.72779952  0.41325463  0.92992220     0.36100
C3344       C  0.71938908  0.43084322  0.93061273    -0.20000
C3345       C  0.71650859  0.43920123  0.94793109    -0.25200
C3346       C  0.72261553  0.43077298  0.96441013     0.27400
H3347       H  0.74027831  0.39136750  0.94593981     0.13200
N3348       N  0.73063550  0.40421984  0.91243920    -0.82500
H3349       H  0.71023392  0.45273782  0.94854553     0.18000
N3350       N  0.72031333  0.43987866  0.98192380    -0.81100
H3351       H  0.73719737  0.39152362  0.91431768     0.33700
H3352       H  0.71760443  0.40141263  0.90691325     0.38200
H3353       H  0.71380684  0.45261601  0.98014375     0.33600
H3354       H  0.71141049  0.43183736  0.99003863     0.30300
H3355       H  0.70738709  0.37171832  0.98862038     0.33600
H3356       H  0.70266724  0.39338344  0.98212804     0.30300
H3357       H  0.78958630  0.39938042  0.01057771     0.38200
H3358       H  0.78417306  0.42103745  0.00480214     0.33700
C3359       C  0.75368614  0.40894308  0.09684272    -0.20100
C3360       C  0.76463307  0.42479687  0.09953821     0.36200
C3361       C  0.75643434  0.44064670  0.10715544    -0.26000
C3362       C  0.73765723  0.44085227  0.11225090     0.02600
C3363       C  0.72698527  0.42479323  0.11038219     0.27400
C3364       C  0.73512006  0.40900172  0.10279290    -0.25200
N3365       N  0.78382696  0.42492506  0.09421354    -0.82600
H3366       H  0.76459790  0.45303314  0.10879741     0.13200
C3367       C  0.72925268  0.45805122  0.11933925     0.02600
N3368       N  0.70784450  0.42470485  0.11593621    -0.81100
H3369       H  0.72665520  0.39685126  0.10095138     0.18000
C3370       C  0.71446427  0.46610718  0.10975473    -0.26000
C3371       C  0.70625408  0.48254875  0.11596629     0.36100
C3372       C  0.71335396  0.49131310  0.13188443    -0.20000
C3373       C  0.72802649  0.48299113  0.14153677    -0.25200
C3374       C  0.73588759  0.46637218  0.13555165     0.27400
H3375       H  0.70938661  0.45955073  0.09731378     0.13200
N3376       N  0.69105824  0.49045950  0.10594793    -0.82500
H3377       H  0.73348393  0.48950572  0.15382713     0.18000
N3378       N  0.75054598  0.45785128  0.14588488    -0.81100
H3379       H  0.68808686  0.48264215  0.09419541     0.33700
H3380       H  0.67935931  0.48964939  0.11449960     0.38200
H3381       H  0.75389221  0.46576625  0.15746121     0.33600
H3382       H  0.74557680  0.44526811  0.15091453     0.30300
H3383       H  0.70187131  0.41184862  0.11344804     0.33600
H3384       H  0.70734368  0.42673834  0.13025976     0.30300
H3385       H  0.79070847  0.41553585  0.10275142     0.38200
H3386       H  0.78971716  0.43780693  0.09675541     0.33700
C3387       C  0.81864458  0.33774267  0.07383005    -0.20100
C3388       C  0.81965574  0.32370379  0.08745502     0.36200
C3389       C  0.83488369  0.31162595  0.08748262    -0.26000
C3390       C  0.84924208  0.31343719  0.07447359     0.02600
C3391       C  0.84879215  0.32804210  0.06159866     0.27400
C3392       C  0.83346062  0.33996061  0.06133116    -0.25200
N3393       N  0.80492973  0.32119181  0.10069590    -0.82600
H3394       H  0.83536419  0.30042924  0.09741838     0.13200
C3395       C  0.86428664  0.29949720  0.07404129     0.02600
N3396       N  0.86380875  0.33053108  0.04869199    -0.81100
H3397       H  0.83290415  0.35080759  0.05102085     0.18000
C3398       C  0.86656395  0.28850654  0.05824930    -0.26000
C3399       C  0.88037648  0.27494659  0.05727630     0.36100
C3400       C  0.89267742  0.27264534  0.07238151    -0.20000
C3401       C  0.88988935  0.28327849  0.08841807    -0.25200
C3402       C  0.87596682  0.29677216  0.08934427     0.27400
H3403       H  0.85730709  0.29031174  0.04662294     0.13200
N3404       N  0.88124430  0.26373659  0.04089113    -0.82500
H3405       H  0.89908572  0.28165388  0.10005345     0.18000
N3406       N  0.87395694  0.30806691  0.10556132    -0.81100
H3407       H  0.86844206  0.25718174  0.03956034     0.33700
H3408       H  0.89084121  0.25313676  0.04226518     0.38200
H3409       H  0.88366798  0.30436341  0.11557921     0.33600
H3410       H  0.87696663  0.32162962  0.10169726     0.30300
H3411       H  0.86133353  0.34186137  0.04009447     0.33600
H3412       H  0.87563616  0.33363864  0.05634321     0.30300
H3413       H  0.80503461  0.33255843  0.10954271     0.38200
H3414       H  0.80742042  0.30966449  0.10902784     0.33700
C3415       C  0.04168444  0.25744750  0.68821280    -0.20100
C3416       C  0.05134796  0.27430384  0.68638527     0.36200
C3417       C  0.05188350  0.28644815  0.70146366    -0.26000
C3418       C  0.04265542  0.28227661  0.71805077     0.02600
C3419       C  0.03348037  0.26532388  0.72010094     0.27400
C3420       C  0.03310110  0.25304977  0.70516382    -0.25200
N3421       N  0.05997766  0.27938971  0.66911859    -0.82600
H3422       H  0.05869456  0.29966094  0.69997928     0.13200
C3423       C  0.04066973  0.29674578  0.73219910     0.02600
N3424       N  0.02426636  0.26088325  0.73724080    -0.81100
H3425       H  0.02582328  0.24009958  0.70670197     0.18000
C3426       C  0.02302042  0.30402485  0.73544483    -0.26000
C3427       C  0.02036840  0.31872864  0.74766295     0.36100
C3428       C  0.03579976  0.32624956  0.75689826    -0.20000
C3429       C  0.05348787  0.31877254  0.75377005    -0.25200
C3430       C  0.05604932  0.30394100  0.74157919     0.27400
H3431       H  0.01131194  0.29847383  0.72799583     0.13200
N3432       N  0.00213359  0.32624394  0.75035085    -0.82500
H3433       H  0.06531309  0.32442103  0.76094345     0.18000
N3434       N  0.07410375  0.29610456  0.73871321    -0.81100
H3435       H  0.99233069  0.31872267  0.74294147     0.33700
H3436       H  0.00210217  0.33952879  0.74474081     0.38200
H3437       H  0.08393411  0.30298077  0.74669439     0.33600
H3438       H  0.07369775  0.28253266  0.74355953     0.30300
H3439       H  0.01802057  0.24793566  0.73646294     0.33600
H3440       H  0.03437325  0.25997500  0.74750595     0.30300
H3441       H  0.04944313  0.28151607  0.65947607     0.38200
H3442       H  0.06689496  0.29195671  0.67036048     0.33700
C3443       C  0.06326818  0.41573633  0.78034589    -0.20100
C3444       C  0.07702581  0.41481316  0.76635061     0.36200
C3445       C  0.08618261  0.43086056  0.76059161    -0.26000
C3446       C  0.08171903  0.44792707  0.76831937     0.02600
C3447       C  0.06825707  0.44900139  0.78247902     0.27400
C3448       C  0.05928453  0.43284078  0.78851625    -0.25200
N3449       N  0.08160897  0.39765979  0.75771677    -0.82600
H3450       H  0.09650677  0.43006481  0.74966852     0.13200
C3451       C  0.09046968  0.46470936  0.76066164     0.02600
N3452       N  0.06331734  0.46658069  0.79015770    -0.81100
H3453       H  0.04864684  0.43372989  0.79911279     0.18000
C3454       C  0.08164255  0.47415706  0.74627397    -0.26000
C3455       C  0.08926315  0.49034619  0.73871590     0.36100
C3456       C  0.10579522  0.49753962  0.74621525    -0.20000
C3457       C  0.11488918  0.48760782  0.76025345    -0.25200
C3458       C  0.10748305  0.47115190  0.76740184     0.27400
H3459       H  0.06874998  0.46881160  0.74091254     0.13200
N3460       N  0.08008646  0.49956245  0.72370811    -0.82500
H3461       H  0.12775292  0.49278544  0.76582718     0.18000
N3462       N  0.11716901  0.46091269  0.78139140    -0.81100
H3463       H  0.06778565  0.49281015  0.72036397     0.33700
H3464       H  0.08865763  0.49848803  0.71203925     0.38200
H3465       H  0.12967502  0.46734565  0.78461923     0.33600
H3466       H  0.10909911  0.46110609  0.79344908     0.30300
H3467       H  0.05291534  0.46507146  0.80017456     0.33600
H3468       H  0.07491167  0.47173254  0.79699215     0.30300
H3469       H  0.07923542  0.39896658  0.74349767     0.38200
H3470       H  0.09572944  0.39522767  0.75961909     0.33700
C3471       C  0.90077059  0.43902776  0.73632197    -0.20100
C3472       C  0.91880708  0.44478161  0.73135625     0.36200
C3473       C  0.93414953  0.43497421  0.73815281    -0.26000
C3474       C  0.93185634  0.41982434  0.75006841     0.02600
C3475       C  0.91387847  0.41394023  0.75481752     0.27400
C3476       C  0.89855292  0.42359323  0.74790600    -0.25200
N3477       N  0.92155264  0.46092096  0.72010498    -0.82600
H3478       H  0.94801473  0.43953236  0.73466820     0.13200
C3479       C  0.94845159  0.41060090  0.75783672     0.02600
N3480       N  0.91127771  0.39825891  0.76673645    -0.81100
H3481       H  0.88475477  0.41915999  0.75180312     0.18000
C3482       C  0.95110880  0.41027305  0.77709268    -0.26000
C3483       C  0.96707649  0.40238470  0.78482940     0.36100
C3484       C  0.98073864  0.39468941  0.77313426    -0.20000
C3485       C  0.97783359  0.39479855  0.75386526    -0.25200
C3486       C  0.96184295  0.40258448  0.74612607     0.27400
H3487       H  0.94083718  0.41641811  0.78616658     0.13200
N3488       N  0.96930507  0.40228915  0.80452290    -0.82500
H3489       H  0.98810360  0.38878721  0.74471252     0.18000
N3490       N  0.95909939  0.40234418  0.72641557    -0.81100
H3491       H  0.96883870  0.41591119  0.80914213     0.33700
H3492       H  0.95806621  0.39527897  0.81037664     0.38200
H3493       H  0.97028240  0.39602630  0.71972449     0.33600
H3494       H  0.94749247  0.39419238  0.72380673     0.30300
H3495       H  0.89719013  0.39583286  0.76903888     0.33600
H3496       H  0.91646138  0.38672982  0.75978922     0.30300
H3497       H  0.91696004  0.47226202  0.72775590     0.38200
H3498       H  0.93564483  0.46306024  0.71755254     0.33700
C3499       C  0.03580737  0.33889172  0.83922366    -0.20100
C3500       C  0.02057615  0.33269993  0.84988805     0.36200
C3501       C  0.02318018  0.31939745  0.86379980    -0.26000
C3502       C  0.04073698  0.31200704  0.86739630     0.02600
C3503       C  0.05608097  0.31831319  0.85704942     0.27400
C3504       C  0.05345921  0.33161254  0.84302684    -0.25200
N3505       N  0.00240333  0.33987513  0.84672793    -0.82600
H3506       H  0.01137074  0.31477906  0.87187944     0.13200
C3507       C  0.04282804  0.29841164  0.88272590     0.02600
N3508       N  0.07425151  0.31128861  0.86092439    -0.81100
H3509       H  0.06525912  0.33616376  0.83491159     0.18000
C3510       C  0.04750739  0.27999399  0.87892415    -0.26000
C3511       C  0.04857102  0.26674351  0.89327209     0.36100
C3512       C  0.04500166  0.27209002  0.91172344    -0.20000
C3513       C  0.04062519  0.29063794  0.91539650    -0.25200
C3514       C  0.03959000  0.30378736  0.90117164     0.27400
H3515       H  0.05000345  0.27591411  0.86470344     0.13200
N3516       N  0.05298275  0.24790660  0.88915978    -0.82500
H3517       H  0.03848792  0.29505931  0.92956675     0.18000
N3518       N  0.03543800  0.32268793  0.90538126    -0.81100
H3519       H  0.04140687  0.23995587  0.89260839     0.33700
H3520       H  0.05522589  0.24622454  0.87494569     0.38200
H3521       H  0.03331604  0.32440615  0.91961301     0.33600
H3522       H  0.04707548  0.33051848  0.90186034     0.30300
H3523       H  0.08404833  0.31727638  0.85206432     0.33600
H3524       H  0.07769139  0.31534313  0.87435715     0.30300
H3525       H  0.99369721  0.32887154  0.84349468     0.38200
H3526       H  0.99763814  0.34576468  0.85906829     0.33700
C3527       C  0.22290401  0.41084794  0.93300016    -0.20100
C3528       C  0.23487267  0.41022949  0.91742985     0.36200
C3529       C  0.24123893  0.42673201  0.90947483    -0.26000
C3530       C  0.23604149  0.44386571  0.91671982     0.02600
C3531       C  0.22351548  0.44457092  0.93177551     0.27400
C3532       C  0.21692949  0.42804665  0.93964068    -0.25200
N3533       N  0.24077220  0.39287787  0.90988877    -0.82600
H3534       H  0.25056569  0.42625972  0.89767418     0.13200
C3535       C  0.24431478  0.46084107  0.90862603     0.02600
N3536       N  0.21803541  0.46202083  0.93939997    -0.81100
H3537       H  0.20779454  0.42862564  0.95157885     0.18000
C3538       C  0.23280188  0.47435785  0.90095894    -0.26000
C3539       C  0.24022211  0.49029871  0.89266581     0.36100
C3540       C  0.25966462  0.49286818  0.89222680    -0.20000
C3541       C  0.27113070  0.47923004  0.89983719    -0.25200
C3542       C  0.26367504  0.46333668  0.90812792     0.27400
H3543       H  0.21795648  0.47228446  0.90117225     0.13200
N3544       N  0.22804840  0.50372666  0.88458215    -0.82500
H3545       H  0.28599896  0.48109938  0.89960771     0.18000
N3546       N  0.27567745  0.44978911  0.91626075    -0.81100
H3547       H  0.21421398  0.49997417  0.88657382     0.33700
H3548       H  0.23038032  0.50365754  0.87027160     0.38200
H3549       H  0.28953958  0.45361108  0.91466281     0.33600
H3550       H  0.27296503  0.44952816  0.93050171     0.30300
H3551       H  0.20877190  0.46015225  0.95042384     0.33600
H3552       H  0.22983621  0.46820829  0.94490780     0.30300
H3553       H  0.22907460  0.38633366  0.90458641     0.38200
H3554       H  0.24984607  0.39486865  0.89872651     0.33700
C3555       C  0.23116013  0.38504342  0.01612663    -0.20100
C3556       C  0.24536227  0.37610210  0.02614099     0.36200
C3557       C  0.25216241  0.38396692  0.04252815    -0.26000
C3558       C  0.24530650  0.40081621  0.04899318     0.02600
C3559       C  0.23121401  0.40978600  0.03907339     0.27400
C3560       C  0.22410271  0.40177784  0.02288281    -0.25200
N3561       N  0.25290113  0.35898604  0.01979347    -0.82600
H3562       H  0.26302621  0.37700570  0.05010729     0.13200
C3563       C  0.25322784  0.40916432  0.06593930     0.02600
N3564       N  0.22422429  0.42713778  0.04536611    -0.81100
H3565       H  0.21335279  0.40893167  0.01532822     0.18000
C3566       C  0.26696280  0.42266930  0.06418179    -0.26000
C3567       C  0.27438301  0.43144143  0.07986780     0.36100
C3568       C  0.26761089  0.42680663  0.09774192    -0.20000
C3569       C  0.25415485  0.41288020  0.09938564    -0.25200
C3570       C  0.24695490  0.40399502  0.08369710     0.27400
H3571       H  0.27182147  0.42644318  0.05045928     0.13200
N3572       N  0.28839414  0.44530201  0.07758258    -0.82500
H3573       H  0.24892205  0.40912935  0.11297137     0.18000
N3574       N  0.23318228  0.38985459  0.08569799    -0.81100
H3575       H  0.29124417  0.44753007  0.06353706     0.33700
H3576       H  0.30057744  0.44014369  0.08336603     0.38200
H3577       H  0.23017906  0.38752020  0.09969642     0.33600
H3578       H  0.22099465  0.39469510  0.07966096     0.30300
H3579       H  0.22628223  0.43679865  0.03479386     0.33600
H3580       H  0.20998031  0.42579119  0.04756142     0.30300
H3581       H  0.26712846  0.36073244  0.01775109     0.38200
H3582       H  0.25100038  0.34916670  0.03024156     0.33700
C3583       C  0.09102800  0.26858876  0.94802741    -0.20100
C3584       C  0.09617142  0.28002849  0.93300543     0.36200
C3585       C  0.11193485  0.29125787  0.93422291    -0.26000
C3586       C  0.12308862  0.29115047  0.95004884     0.02600
C3587       C  0.11886031  0.27865615  0.96451503     0.27400
C3588       C  0.10273628  0.26776566  0.96349887    -0.25200
N3589       N  0.08499085  0.28109608  0.91678344    -0.82600
H3590       H  0.11500109  0.30071936  0.92299226     0.13200
C3591       C  0.13814222  0.30515780  0.95189554     0.02600
N3592       N  0.13088399  0.27721285  0.98023927    -0.81100
H3593       H  0.09914885  0.25873823  0.97493813     0.18000
C3594       C  0.13795943  0.31698084  0.96726078    -0.26000
C3595       C  0.15144018  0.33072617  0.96945167     0.36100
C3596       C  0.16565191  0.33282099  0.95613713    -0.20000
C3597       C  0.16558648  0.32130183  0.94047033    -0.25200
C3598       C  0.15201401  0.30752531  0.93820486     0.27400
H3599       H  0.12708545  0.31569370  0.97758245     0.13200
N3600       N  0.15045069  0.34268132  0.98516147    -0.82500
H3601       H  0.17644777  0.32271553  0.93015909     0.18000
N3602       N  0.15241500  0.29580075  0.92219341    -0.81100
H3603       H  0.13765859  0.34941263  0.98491394     0.33700
H3604       H  0.15092747  0.33457503  0.99713344     0.38200
H3605       H  0.16339108  0.29937712  0.91339948     0.33600
H3606       H  0.15495390  0.28237285  0.92676057     0.30300
H3607       H  0.12587042  0.26741267  0.98962833     0.33600
H3608       H  0.14366184  0.27233052  0.97545685     0.30300
H3609       H  0.09316612  0.27740490  0.90538710     0.38200
H3610       H  0.08088691  0.29478684  0.91499530     0.33700
C3611       C  0.00584797  0.39821029  0.24453014    -0.20100
C3612       C  0.01245682  0.39341645  0.26234218     0.36200
C3613       C  0.02779801  0.40272430  0.26968338    -0.26000
C3614       C  0.03706249  0.41634874  0.25948446     0.02600
C3615       C  0.03095743  0.42066470  0.24142285     0.27400
C3616       C  0.01540364  0.41157411  0.23414912    -0.25200
N3617       N  0.00378892  0.37890710  0.27283140    -0.82600
H3618       H  0.03283651  0.39906524  0.28331429     0.13200
C3619       C  0.05372591  0.42527141  0.26752930     0.02600
N3620       N  0.04050073  0.43437224  0.23061599    -0.81100
H3621       H  0.01052075  0.41519986  0.22045541     0.18000
C3622       C  0.07073588  0.42330508  0.25838195    -0.26000
C3623       C  0.08688361  0.43152193  0.26521631     0.36100
C3624       C  0.08603703  0.44226261  0.28155434    -0.20000
C3625       C  0.06907887  0.44370090  0.29111204    -0.25200
C3626       C  0.05289758  0.43533186  0.28424036     0.27400
H3627       H  0.07141352  0.41519382  0.24581872     0.13200
N3628       N  0.10412762  0.42901081  0.25550595    -0.82500
H3629       H  0.06830261  0.45185830  0.30363486     0.18000
N3630       N  0.03557708  0.43731332  0.29392923    -0.81100
H3631       H  0.10226973  0.42112695  0.24356811     0.33700
H3632       H  0.11285522  0.42142366  0.26415180     0.38200
H3633       H  0.03730592  0.44505445  0.30598361     0.33600
H3634       H  0.02666855  0.44481156  0.28539436     0.30300
H3635       H  0.03439609  0.43583102  0.21759714     0.33600
H3636       H  0.03892270  0.44698570  0.23738038     0.30300
H3637       H  0.00588679  0.36662569  0.26558250     0.38200
H3638       H  0.01021461  0.37724277  0.28566404     0.33700
C3639       C  0.92319813  0.41963790  0.23358505    -0.20100
C3640       C  0.90514941  0.41770201  0.24103649     0.36200
C3641       C  0.89560435  0.43335968  0.24732960    -0.26000
C3642       C  0.90374110  0.45083609  0.24649561     0.02600
C3643       C  0.92157941  0.45286725  0.23874847     0.27400
C3644       C  0.93107656  0.43725573  0.23223763    -0.25200
N3645       N  0.89667755  0.39985105  0.24247207    -0.82600
H3646       H  0.88190859  0.43190082  0.25334587     0.13200
C3647       C  0.89369369  0.46676793  0.25449791     0.02600
N3648       N  0.93006638  0.47073776  0.23782861    -0.81100
H3649       H  0.94496810  0.43877935  0.22672253     0.18000
C3650       C  0.90125248  0.47591890  0.26975448    -0.26000
C3651       C  0.89227352  0.49113698  0.27775777     0.36100
C3652       C  0.87520425  0.49716586  0.27045422    -0.20000
C3653       C  0.86757684  0.48783570  0.25525914    -0.25200
C3654       C  0.87665600  0.47269599  0.24720375     0.27400
H3655       H  0.91431826  0.47121428  0.27533965     0.13200
N3656       N  0.90066748  0.50068669  0.29296274    -0.82500
H3657       H  0.85453390  0.49245405  0.24955206     0.18000
N3658       N  0.86877327  0.46342593  0.23155002    -0.81100
H3659       H  0.91297729  0.49422822  0.29687669     0.33700
H3660       H  0.90432545  0.51382157  0.28825401     0.38200
H3661       H  0.85614558  0.46942634  0.22792395     0.33600
H3662       H  0.87772020  0.46536316  0.22027824     0.30300
H3663       H  0.94331017  0.46985029  0.23198850     0.33600
H3664       H  0.92217359  0.47886093  0.22888040     0.30300
H3665       H  0.89468855  0.39498544  0.22901593     0.38200
H3666       H  0.88355952  0.40081788  0.24858403     0.33700
C3667       C  0.94871220  0.34332230  0.17739410    -0.20100
C3668       C  0.96349123  0.33508214  0.16745187     0.36200
C3669       C  0.95965462  0.32185600  0.15379450    -0.26000
C3670       C  0.94146046  0.31651879  0.14991012     0.02600
C3671       C  0.92668842  0.32472415  0.15963022     0.27400
C3672       C  0.93044437  0.33802363  0.17326900    -0.25200
N3673       N  0.98235313  0.33984874  0.17142127    -0.82600
H3674       H  0.97094085  0.31552423  0.14617765     0.13200
C3675       C  0.93824236  0.30256476  0.13528405     0.02600
N3676       N  0.90796876  0.31945581  0.15563936    -0.81100
H3677       H  0.91902301  0.34406890  0.18090532     0.18000
C3678       C  0.93284800  0.28458772  0.14012338    -0.26000
C3679       C  0.93141727  0.27071594  0.12657951     0.36100
C3680       C  0.93534020  0.27485971  0.10793023    -0.20000
C3681       C  0.93985385  0.29315877  0.10310125    -0.25200
C3682       C  0.94147466  0.30695642  0.11655706     0.27400
H3683       H  0.93027221  0.28119417  0.15453225     0.13200
N3684       N  0.92658235  0.25234627  0.13189068    -0.82500
H3685       H  0.94218594  0.29674488  0.08870130     0.18000
N3686       N  0.94659450  0.32538998  0.11133957    -0.81100
H3687       H  0.93626554  0.24776254  0.14156918     0.33700
H3688       H  0.91364157  0.25277966  0.13841864     0.38200
H3689       H  0.94871920  0.32631964  0.09702495     0.33600
H3690       H  0.93541767  0.33399689  0.11448807     0.30300
H3691       H  0.89868250  0.32663167  0.16412046     0.33600
H3692       H  0.90516538  0.32345013  0.14201573     0.30300
H3693       H  0.98428927  0.35354332  0.16737881     0.38200
H3694       H  0.99149686  0.33199158  0.16341248     0.33700
C3695       C  0.24896579  0.96724072  0.03244289    -0.20100
C3696       C  0.24108102  0.98478903  0.03593370     0.36200
C3697       C  0.24074544  0.99812841  0.02198982    -0.26000
C3698       C  0.24835596  0.99458201  0.00455552     0.02600
C3699       C  0.25772279  0.97790624  0.00130691     0.27400
C3700       C  0.25802221  0.96438221  0.01529737    -0.25200
N3701       N  0.23256949  0.98884143  0.05344377    -0.82600
H3702       H  0.23391774  0.01116939  0.02459926     0.13200
C3703       C  0.24532817  0.00816723  0.98966339     0.02600
N3704       N  0.26636521  0.97457120  0.98363746    -0.81100
H3705       H  0.26472403  0.95151595  0.01218572     0.18000
C3706       C  0.26019564  0.01844469  0.98290544    -0.26000
C3707       C  0.25747436  0.03225319  0.96962873     0.36100
C3708       C  0.23943571  0.03611900  0.96291271    -0.20000
C3709       C  0.22462970  0.02524772  0.96954983    -0.25200
C3710       C  0.22743302  0.01134733  0.98279070     0.27400
H3711       H  0.27398567  0.01590636  0.98815839     0.13200
N3712       N  0.27317870  0.04239682  0.96303741    -0.82500
H3713       H  0.21080222  0.02707159  0.96444572     0.18000
N3714       N  0.21216819  0.00036935  0.98933622    -0.81100
H3715       H  0.28264206  0.03304353  0.95739595     0.33700
H3716       H  0.27942612  0.04873987  0.97438029     0.38200
H3717       H  0.19983194  0.00447270  0.98305944     0.33600
H3718       H  0.21459844  0.98678894  0.98520868     0.30300
H3719       H  0.27283258  0.96168889  0.98349845     0.33600
H3720       H  0.25593184  0.97410485  0.97368608     0.30300
H3721       H  0.23915809  0.00035277  0.05902463     0.38200
H3722       H  0.21871692  0.99226054  0.05113364     0.33700
C3723       C  0.24472339  0.68179503  0.05492291    -0.20100
C3724       C  0.24336009  0.69725575  0.04311365     0.36200
C3725       C  0.25668056  0.71116747  0.04429995    -0.26000
C3726       C  0.27120332  0.70986151  0.05699276     0.02600
C3727       C  0.27179923  0.69513666  0.06969384     0.27400
C3728       C  0.25834644  0.68131045  0.06867905    -0.25200
N3729       N  0.22875253  0.69858555  0.02973469    -0.82600
H3730       H  0.25617639  0.72277200  0.03484592     0.13200
C3731       C  0.28657029  0.72307439  0.05557096     0.02600
N3732       N  0.28652817  0.69384831  0.08293692    -0.81100
H3733       H  0.25922333  0.66955232  0.07789857     0.18000
C3734       C  0.29061720  0.73456764  0.07055509    -0.26000
C3735       C  0.30524449  0.74723070  0.06947069     0.36100
C3736       C  0.31598440  0.74816941  0.05307703    -0.20000
C3737       C  0.31181323  0.73664790  0.03812555    -0.25200
C3738       C  0.29730529  0.72399504  0.03924939     0.27400
H3739       H  0.28220991  0.73375356  0.08301025     0.13200
N3740       N  0.30901243  0.75924313  0.08478236    -0.82500
H3741       H  0.32014169  0.73725580  0.02560448     0.18000
N3742       N  0.29353249  0.71190171  0.02398237    -0.81100
H3743       H  0.29996580  0.75655017  0.09581641     0.33700
H3744       H  0.30627448  0.77270643  0.08042662     0.38200
H3745       H  0.30263826  0.71444607  0.01296117     0.33600
H3746       H  0.29608985  0.69843512  0.02842940     0.30300
H3747       H  0.28486002  0.68219829  0.09131448     0.33600
H3748       H  0.29888812  0.69200390  0.07557018     0.30300
H3749       H  0.21625123  0.69948223  0.03704353     0.38200
H3750       H  0.22995845  0.71072291  0.02200369     0.33700
C3751       C  0.38458112  0.76319414  0.99780351    -0.20100
C3752       C  0.38477988  0.74407706  0.99381296     0.36200
C3753       C  0.39290481  0.73777433  0.97722574    -0.26000
C3754       C  0.40091966  0.74997169  0.96440889     0.02600
C3755       C  0.40087117  0.76901506  0.96839460     0.27400
C3756       C  0.39258242  0.77540903  0.98491855    -0.25200
N3757       N  0.37664754  0.73104141  0.00647796    -0.82600
H3758       H  0.39267500  0.72319959  0.97408886     0.13200
C3759       C  0.40876571  0.74255546  0.94668774     0.02600
N3760       N  0.40946019  0.78177471  0.95576242    -0.81100
H3761       H  0.39258265  0.79002707  0.98783788     0.18000
C3762       C  0.40242613  0.74950874  0.92970796    -0.26000
C3763       C  0.40914220  0.74265382  0.91275765     0.36100
C3764       C  0.42230267  0.72824537  0.91254124    -0.20000
C3765       C  0.42846249  0.72109056  0.92953213    -0.25200
C3766       C  0.42204120  0.72823298  0.94655947     0.27400
H3767       H  0.39207160  0.76030480  0.92957772     0.13200
N3768       N  0.40242585  0.75036316  0.89579622    -0.82500
H3769       H  0.43879017  0.71027406  0.92955279     0.18000
N3770       N  0.42923371  0.72124926  0.96372165    -0.81100
H3771       H  0.38805174  0.74879641  0.89557652     0.33700
H3772       H  0.40536656  0.76445423  0.89578433     0.38200
H3773       H  0.43887252  0.71078251  0.96126556     0.33600
H3774       H  0.43639561  0.73196743  0.97012198     0.30300
H3775       H  0.40820707  0.79525258  0.96065997     0.33600
H3776       H  0.42360765  0.77877208  0.95537958     0.30300
H3777       H  0.36234281  0.73319184  0.00642279     0.38200
H3778       H  0.37876178  0.71756131  0.00187566     0.33700
C3779       C  0.48637325  0.73697376  0.12377867    -0.20100
C3780       C  0.47394105  0.72568706  0.11386801     0.36200
C3781       C  0.45806937  0.73358201  0.10586651    -0.26000
C3782       C  0.45408431  0.75233914  0.10796906     0.02600
C3783       C  0.46586547  0.76344851  0.11861630     0.27400
C3784       C  0.48194448  0.75569937  0.12630247    -0.25200
N3785       N  0.47743587  0.70631616  0.11185436    -0.82600
H3786       H  0.44874203  0.72509119  0.09788244     0.13200
C3787       C  0.43773878  0.76020069  0.09849113     0.02600
N3788       N  0.46134797  0.78248015  0.12172106    -0.81100
H3789       H  0.49115282  0.76442084  0.13416199     0.18000
C3790       C  0.42038702  0.75962005  0.10723766    -0.26000
C3791       C  0.40441379  0.76592399  0.09810430     0.36100
C3792       C  0.40595275  0.77313636  0.07994202    -0.20000
C3793       C  0.42344475  0.77415552  0.07145895    -0.25200
C3794       C  0.43932252  0.76751321  0.08045320     0.27400
H3795       H  0.41929229  0.75392547  0.12109014     0.13200
N3796       N  0.38665401  0.76487213  0.10711849    -0.82500
H3797       H  0.42460365  0.77936158  0.05741975     0.18000
N3798       N  0.45692004  0.76741085  0.07106099    -0.81100
H3799       H  0.38790634  0.75908200  0.12032973     0.33700
H3800       H  0.38188845  0.77833461  0.10899144     0.38200
H3801       H  0.45563742  0.77274775  0.05766349     0.33600
H3802       H  0.46576246  0.77626299  0.07816111     0.30300
H3803       H  0.47125457  0.78867031  0.13015980     0.33600
H3804       H  0.46193323  0.78930763  0.10897667     0.30300
H3805       H  0.47632762  0.70035797  0.12501725     0.38200
H3806       H  0.46721812  0.70016657  0.10376591     0.33700
C3807       C  0.26233287  0.90341965  0.05747120    -0.20100
C3808       C  0.28180082  0.90593336  0.05682619     0.36200
C3809       C  0.29354966  0.89056474  0.05656689    -0.26000
C3810       C  0.28646775  0.87269682  0.05728087     0.02600
C3811       C  0.26716317  0.87004281  0.05887678     0.27400
C3812       C  0.25523074  0.88549716  0.05902887    -0.25200
N3813       N  0.28960690  0.92414386  0.05646319    -0.82600
H3814       H  0.30839464  0.89250070  0.05562625     0.13200
C3815       C  0.29971565  0.85713072  0.05551812     0.02600
N3816       N  0.25980122  0.85172178  0.06022116    -0.81100
H3817       H  0.24039516  0.88354593  0.05979914     0.18000
C3818       C  0.30780776  0.84960291  0.07141191    -0.26000
C3819       C  0.32180426  0.83610403  0.07010659     0.36100
C3820       C  0.32786098  0.82998567  0.05241685    -0.20000
C3821       C  0.31968058  0.83770484  0.03654876    -0.25200
C3822       C  0.30570281  0.85116088  0.03792997     0.27400
H3823       H  0.30334940  0.85449562  0.08488780     0.13200
N3824       N  0.32964216  0.82849639  0.08670572    -0.82500
H3825       H  0.32404745  0.83307558  0.02295696     0.18000
N3826       N  0.29768969  0.85900326  0.02152335    -0.81100
H3827       H  0.32308377  0.83387970  0.09845333     0.33700
H3828       H  0.34342294  0.83280229  0.08729791     0.38200
H3829       H  0.30372843  0.85332681  0.00964917     0.33600
H3830       H  0.28371739  0.85529589  0.02132003     0.30300
H3831       H  0.24538401  0.85213570  0.06144266     0.33600
H3832       H  0.26277914  0.84495503  0.04779661     0.30300
H3833       H  0.28640427  0.93041876  0.06908476     0.38200
H3834       H  0.30404462  0.92357397  0.05562730     0.33700
C3835       C  0.25773126  0.05582749  0.68255559    -0.20100
C3836       C  0.25839414  0.04621251  0.69957072     0.36200
C3837       C  0.27250795  0.05022501  0.71211254    -0.26000
C3838       C  0.28606207  0.06339097  0.70795474     0.02600
C3839       C  0.28549938  0.07300041  0.69102238     0.27400
C3840       C  0.27125528  0.06918280  0.67850201    -0.25200
N3841       N  0.24473733  0.03254834  0.70419852    -0.82600
H3842       H  0.27326799  0.04266292  0.72504925     0.13200
C3843       C  0.30144196  0.06572636  0.72105261     0.02600
N3844       N  0.29940625  0.08648987  0.68663450    -0.81100
H3845       H  0.27080362  0.07659002  0.66546490     0.18000
C3846       C  0.31939910  0.06123120  0.71521753    -0.26000
C3847       C  0.33384810  0.05988480  0.72799977     0.36100
C3848       C  0.33010022  0.06301366  0.74694439    -0.20000
C3849       C  0.31244105  0.06883462  0.75254675    -0.25200
C3850       C  0.29799886  0.07014835  0.73975096     0.27400
H3851       H  0.32193457  0.05787989  0.70080331     0.13200
N3852       N  0.35215586  0.05491848  0.72190187    -0.82500
H3853       H  0.30964849  0.07140028  0.76707860     0.18000
N3854       N  0.27968682  0.07523638  0.74571719    -0.81100
H3855       H  0.36085066  0.06607482  0.72461890     0.33700
H3856       H  0.35247370  0.05292779  0.70756285     0.38200
H3857       H  0.27942470  0.07779358  0.75996493     0.33600
H3858       H  0.27632542  0.08762932  0.73915769     0.30300
H3859       H  0.29706420  0.09222195  0.67355364     0.33600
H3860       H  0.29810756  0.09719218  0.69620754     0.30300
H3861       H  0.24712578  0.02118034  0.69565939     0.38200
H3862       H  0.24650625  0.02785513  0.71777787     0.33700
C3863       C  0.38763494  0.99691352  0.77587219    -0.20100
C3864       C  0.37582178  0.98158944  0.77383406     0.36200
C3865       C  0.38284877  0.96523426  0.76621673    -0.26000
C3866       C  0.40147237  0.96377825  0.76083795     0.02600
C3867       C  0.41344156  0.97887783  0.76346952     0.27400
C3868       C  0.40638723  0.99530361  0.77098081    -0.25200
N3869       N  0.35673332  0.98270831  0.77944415    -0.82600
H3870       H  0.37370173  0.95360312  0.76423674     0.13200
C3871       C  0.40818444  0.94634124  0.75245311     0.02600
N3872       N  0.43265199  0.97749943  0.75837216    -0.81100
H3873       H  0.41543728  0.00708387  0.77247491     0.18000
C3874       C  0.41649033  0.94664268  0.73482038    -0.26000
C3875       C  0.42340884  0.93045647  0.72664226     0.36100
C3876       C  0.42183104  0.91357866  0.73630290    -0.20000
C3877       C  0.41284604  0.91327008  0.75363976    -0.25200
C3878       C  0.40625615  0.92945814  0.76191400     0.27400
H3879       H  0.41766133  0.95961309  0.72746371     0.13200
N3880       N  0.43228940  0.93122253  0.70879089    -0.82500
H3881       H  0.41162469  0.90042689  0.76120579     0.18000
N3882       N  0.39810843  0.92890163  0.78013336    -0.81100
H3883       H  0.43275617  0.94476143  0.70386210     0.33700
H3884       H  0.42405671  0.92384500  0.69955429     0.38200
H3885       H  0.39767491  0.91540399  0.78518035     0.33600
H3886       H  0.40675552  0.93627789  0.78898495     0.30300
H3887       H  0.43951948  0.98987001  0.76101386     0.33600
H3888       H  0.43867892  0.96753333  0.76689659     0.30300
H3889       H  0.35643482  0.98466835  0.79378730     0.38200
H3890       H  0.34993990  0.97026794  0.77693125     0.33700
C3891       C  0.49720082  0.11897281  0.73614285    -0.20100
C3892       C  0.48964232  0.12591455  0.75285070     0.36200
C3893       C  0.47336366  0.11826827  0.76026325    -0.26000
C3894       C  0.46450092  0.10350464  0.75158287     0.02600
C3895       C  0.47223913  0.09616787  0.73514718     0.27400
C3896       C  0.48835526  0.10411879  0.72748193    -0.25200
N3897       N  0.49829655  0.14089083  0.76231333    -0.82600
H3898       H  0.46750220  0.12404716  0.77282003     0.13200
C3899       C  0.44684732  0.09621339  0.75949888     0.02600
N3900       N  0.46379721  0.08053746  0.72643582    -0.81100
H3901       H  0.49419424  0.09848329  0.71485470     0.18000
C3902       C  0.43095068  0.09636909  0.74850296    -0.26000
C3903       C  0.41406567  0.08920494  0.75504272     0.36100
C3904       C  0.41306694  0.08124502  0.77300548    -0.20000
C3905       C  0.42884283  0.08179149  0.78429346    -0.25200
C3906       C  0.44568203  0.08927070  0.77776516     0.27400
H3907       H  0.43174674  0.10216603  0.73467239     0.13200
N3908       N  0.39806933  0.08974440  0.74329369    -0.82500
H3909       H  0.42820349  0.07589642  0.79807986     0.18000
N3910       N  0.46170200  0.08946873  0.78946339    -0.81100
H3911       H  0.40136402  0.09539810  0.73035485     0.33700
H3912       H  0.38848418  0.09867861  0.74941234     0.38200
H3913       H  0.45854074  0.08398258  0.80250488     0.33600
H3914       H  0.47162065  0.08079907  0.78349958     0.30300
H3915       H  0.47117066  0.07678469  0.71452456     0.33600
H3916       H  0.46473808  0.06943971  0.73563655     0.30300
H3917       H  0.50157272  0.13647683  0.77569961     0.38200
H3918       H  0.48871835  0.15162799  0.76341301     0.33700
C3919       C  0.26087686  0.06049582  0.90236914    -0.20100
C3920       C  0.27984302  0.06030499  0.90694223     0.36200
C3921       C  0.29330882  0.05875114  0.89298647    -0.26000
C3922       C  0.28839014  0.05739209  0.87428071     0.02600
C3923       C  0.26934976  0.05760856  0.86959672     0.27400
C3924       C  0.25578964  0.05926723  0.88371758    -0.25200
N3925       N  0.28551879  0.06181197  0.92585409    -0.82600
H3926       H  0.30776287  0.05832730  0.89686832     0.13200
C3927       C  0.30340538  0.05543311  0.85999263     0.02600
N3928       N  0.26385219  0.05604957  0.85057083    -0.81100
H3929       H  0.24123203  0.05918887  0.88022093     0.18000
C3930       C  0.30302662  0.04059421  0.84759627    -0.26000
C3931       C  0.31689382  0.03823580  0.83398652     0.36100
C3932       C  0.33194079  0.05075604  0.83300296    -0.20000
C3933       C  0.33248972  0.06538553  0.84567327    -0.25200
C3934       C  0.31839795  0.06792249  0.85903318     0.27400
H3935       H  0.29174005  0.03082039  0.84846576     0.13200
N3936       N  0.31542501  0.02338354  0.82094501    -0.82500
H3937       H  0.34382641  0.07510960  0.84495676     0.18000
N3938       N  0.31912569  0.08332873  0.87146575    -0.81100
H3939       H  0.30394948  0.01513412  0.82400075     0.33700
H3940       H  0.31292363  0.02919893  0.80793384     0.38200
H3941       H  0.33104363  0.09114205  0.86907156     0.33600
H3942       H  0.30784985  0.09185332  0.86852214     0.30300
H3943       H  0.24943112  0.05621299  0.84949675     0.33600
H3944       H  0.26871404  0.06770280  0.84356259     0.30300
H3945       H  0.29355034  0.05026766  0.92903548     0.38200
H3946       H  0.29391954  0.07344921  0.92705494     0.33700
C3947       C  0.31907219  0.25283337  0.96077296    -0.20100
C3948       C  0.31255700  0.25819931  0.94312269     0.36200
C3949       C  0.29808973  0.27108238  0.94192035    -0.26000
C3950       C  0.29040010  0.27897110  0.95791649     0.02600
C3951       C  0.29719897  0.27393877  0.97547361     0.27400
C3952       C  0.31133375  0.26084714  0.97670868    -0.25200
N3953       N  0.32057509  0.25064247  0.92652908    -0.82600
H3954       H  0.29282313  0.27507184  0.92847213     0.13200
C3955       C  0.27547899  0.29281415  0.95634801     0.02600
N3956       N  0.28977895  0.28226339  0.99198905    -0.81100
H3957       H  0.31633575  0.25691663  0.99027340     0.18000
C3958       C  0.25891610  0.28991954  0.96611026    -0.26000
C3959       C  0.24561622  0.30382834  0.96752768     0.36100
C3960       C  0.24857115  0.32079745  0.95844927    -0.20000
C3961       C  0.26460830  0.32323267  0.94762322    -0.25200
C3962       C  0.27825705  0.30949498  0.94670026     0.27400
H3963       H  0.25664156  0.27701069  0.97333543     0.13200
N3964       N  0.22933541  0.30072154  0.97850673    -0.82500
H3965       H  0.26691755  0.33619922  0.94053556     0.18000
N3966       N  0.29518189  0.31268357  0.93662736    -0.81100
H3967       H  0.22247199  0.28924479  0.97320362     0.33700
H3968       H  0.23346617  0.29761401  0.99202107     0.38200
H3969       H  0.29499186  0.32563607  0.93028136     0.33600
H3970       H  0.30596552  0.31291127  0.94621316     0.30300
H3971       H  0.29617719  0.27692892  0.00379623     0.33600
H3972       H  0.29297538  0.29628912  0.99151865     0.30300
H3973       H  0.33418651  0.25544328  0.92559896     0.38200
H3974       H  0.31375975  0.25562978  0.91480705     0.33700
C3975       C  0.40250233  0.22026516  0.93139194    -0.20100
C3976       C  0.42056845  0.21355714  0.93471400     0.36200
C3977       C  0.43556152  0.22102603  0.92471025    -0.26000
C3978       C  0.43284932  0.23492023  0.91148799     0.02600
C3979       C  0.41483794  0.24103714  0.90755515     0.27400
C3980       C  0.39984015  0.23352287  0.91739952    -0.25200
N3981       N  0.42376406  0.19972839  0.94860837    -0.82600
H3982       H  0.44950101  0.21629837  0.92748443     0.13200
C3983       C  0.44909791  0.24349903  0.90241428     0.02600
N3984       N  0.41193972  0.25531115  0.89404186    -0.81100
H3985       H  0.38607097  0.23874708  0.91470365     0.18000
C3986       C  0.45264678  0.24002195  0.88367863    -0.26000
C3987       C  0.46836944  0.24735911  0.87481864     0.36100
C3988       C  0.48088510  0.25831294  0.88505084    -0.20000
C3989       C  0.47679812  0.26236483  0.90366477    -0.25200
C3990       C  0.46098407  0.25509585  0.91242373     0.27400
H3991       H  0.44322454  0.23132364  0.87603578     0.13200
N3992       N  0.47176889  0.24343582  0.85558626    -0.82500
H3993       H  0.48621762  0.27081516  0.91157326     0.18000
N3994       N  0.45701485  0.25922464  0.93150633    -0.81100
H3995       H  0.46152092  0.23479085  0.85031648     0.33700
H3996       H  0.47073790  0.25585663  0.84831413     0.38200
H3997       H  0.46715785  0.26787744  0.93695237     0.33600
H3998       H  0.44457987  0.26658828  0.93192859     0.30300
H3999       H  0.39784121  0.25826247  0.89277723     0.33600
H4000       H  0.41821356  0.26728540  0.89897608     0.30300
H4001       H  0.41739430  0.18762273  0.94415232     0.38200
H4002       H  0.43788730  0.19679287  0.94965740     0.33700
C4003       C  0.38854478  0.23356115  0.01376575    -0.20100
C4004       C  0.39579601  0.25166113  0.01319826     0.36200
C4005       C  0.40417686  0.25913806  0.02891853    -0.26000
C4006       C  0.40561682  0.24899847  0.04536209     0.02600
C4007       C  0.39858421  0.23086460  0.04602847     0.27400
C4008       C  0.39012454  0.22333183  0.03022239    -0.25200
N4009       N  0.39459568  0.26266803  0.99674837    -0.82600
H4010       H  0.40941301  0.27310610  0.02832978     0.13200
C4011       C  0.41442896  0.25765103  0.06175281     0.02600
N4012       N  0.40007924  0.22018787  0.06274490    -0.81100
H4013       H  0.38459279  0.20948958  0.03083362     0.18000
C4014       C  0.40441199  0.25910693  0.07840016    -0.26000
C4015       C  0.41243541  0.26676238  0.09433201     0.36100
C4016       C  0.43088606  0.27317546  0.09355647    -0.20000
C4017       C  0.44060774  0.27240232  0.07667258    -0.25200
C4018       C  0.43264994  0.26458512  0.06081818     0.27400
H4019       H  0.39027597  0.25417041  0.07895846     0.13200
N4020       N  0.40194897  0.26793014  0.11127152    -0.82500
H4021       H  0.45480206  0.27715950  0.07603361     0.18000
N4022       N  0.44317051  0.26321938  0.04390632    -0.81100
H4023       H  0.38869819  0.26245685  0.10952441     0.33700
H4024       H  0.40019444  0.28188575  0.11432053     0.38200
H4025       H  0.45630834  0.26899724  0.04551191     0.33600
H4026       H  0.44518691  0.24924047  0.04114279     0.30300
H4027       H  0.39412388  0.20719953  0.06101518     0.33600
H4028       H  0.41414797  0.21802034  0.06523570     0.30300
H4029       H  0.40800070  0.26642282  0.99275310     0.38200
H4030       H  0.38727314  0.27467463  0.99996685     0.33700
C4031       C  0.32368580  0.16912612  0.96514905    -0.20100
C4032       C  0.30503339  0.17234015  0.97034165     0.36200
C4033       C  0.29146978  0.15906283  0.96636439    -0.26000
C4034       C  0.29599741  0.14260746  0.95728039     0.02600
C4035       C  0.31465026  0.13927484  0.95227460     0.27400
C4036       C  0.32823475  0.15265717  0.95604887    -0.25200
N4037       N  0.29975049  0.18935866  0.97904041    -0.82600
H4038       H  0.27715412  0.16176207  0.96998078     0.13200
C4039       C  0.28106760  0.12907276  0.95296122     0.02600
N4040       N  0.31973082  0.12226412  0.94346484    -0.81100
H4041       H  0.34245932  0.15019353  0.95192596     0.18000
C4042       C  0.27866853  0.12312431  0.93465619    -0.26000
C4043       C  0.26589204  0.10924052  0.93023771     0.36100
C4044       C  0.25492463  0.10112037  0.94435854    -0.20000
C4045       C  0.25625501  0.10832756  0.96242378    -0.25200
C4046       C  0.26936323  0.12190558  0.96693359     0.27400
H4047       H  0.28719306  0.12894504  0.92372033     0.13200
N4048       N  0.26479003  0.10309852  0.91147499    -0.82500
H4049       H  0.24754278  0.10277069  0.97333369     0.18000
N4050       N  0.27127230  0.12793492  0.98578188    -0.81100
H4051       H  0.27800774  0.09901270  0.90720138     0.33700
H4052       H  0.26089229  0.11430756  0.90326552     0.38200
H4053       H  0.26161084  0.12136643  0.99437060     0.33600
H4054       H  0.28434679  0.12383533  0.99034114     0.30300
H4055       H  0.33393152  0.12195576  0.94063917     0.33600
H4056       H  0.31709158  0.11161697  0.95288761     0.30300
H4057       H  0.28562956  0.18938105  0.98226400     0.38200
H4058       H  0.30180675  0.19992052  0.96937291     0.33700
C4059       C  0.47250507  0.88322424  0.27783689    -0.20100
C4060       C  0.46072207  0.89458760  0.28859714     0.36200
C4061       C  0.44463421  0.90207733  0.28049348    -0.26000
C4062       C  0.43992992  0.89816339  0.26204780     0.02600
C4063       C  0.45125722  0.88624863  0.25163114     0.27400
C4064       C  0.46742824  0.87909051  0.25952878    -0.25200
N4065       N  0.46520804  0.89878156  0.30749005    -0.82600
H4066       H  0.43583176  0.91119526  0.28849601     0.13200
C4067       C  0.42353938  0.90710613  0.25343105     0.02600
N4068       N  0.44624101  0.88144959  0.23301482    -0.81100
H4069       H  0.47612526  0.87014218  0.25123098     0.18000
C4070       C  0.42609632  0.91827266  0.23773391    -0.26000
C4071       C  0.41109896  0.92713640  0.22914251     0.36100
C4072       C  0.39316904  0.92547800  0.23692064    -0.20000
C4073       C  0.39055838  0.91372510  0.25227152    -0.25200
C4074       C  0.40550880  0.90428698  0.26038447     0.27400
H4075       H  0.43993425  0.92009374  0.23216992     0.13200
N4076       N  0.41412230  0.93793980  0.21269584    -0.82500
H4077       H  0.37682705  0.91203323  0.25812423     0.18000
N4078       N  0.40247248  0.89178664  0.27556744    -0.81100
H4079       H  0.42814080  0.93801928  0.20904693     0.33700
H4080       H  0.40721340  0.93139103  0.20186477     0.38200
H4081       H  0.38840736  0.89116060  0.27897059     0.33600
H4082       H  0.40624135  0.87862608  0.27106443     0.30300
H4083       H  0.45605970  0.87258993  0.22716952     0.33600
H4084       H  0.43381428  0.87411433  0.23371047     0.30300
H4085       H  0.46401624  0.88658044  0.31511397     0.38200
H4086       H  0.45551011  0.90790647  0.31312520     0.33700
C4087       C  0.37294277  0.01107421  0.23588739    -0.20100
C4088       C  0.36462329  0.02276173  0.24918607     0.36200
C4089       C  0.37392423  0.03864602  0.25507142    -0.26000
C4090       C  0.39144826  0.04306410  0.24801788     0.02600
C4091       C  0.39960501  0.03182277  0.23435368     0.27400
C4092       C  0.39022596  0.01598347  0.22834127    -0.25200
N4093       N  0.34682062  0.01852425  0.25690114    -0.82600
H4094       H  0.36761140  0.04736628  0.26550698     0.13200
C4095       C  0.40154341  0.05898286  0.25572675     0.02600
N4096       N  0.41762254  0.03625329  0.22708419    -0.81100
H4097       H  0.39671371  0.00715407  0.21812032     0.18000
C4098       C  0.41366078  0.05614918  0.27055095    -0.26000
C4099       C  0.42395927  0.07077821  0.27801914     0.36100
C4100       C  0.42213499  0.08861673  0.27033276    -0.20000
C4101       C  0.40957701  0.09138505  0.25572514    -0.25200
C4102       C  0.39932399  0.07675509  0.24831894     0.27400
H4103       H  0.41516682  0.04240004  0.27620725     0.13200
N4104       N  0.43649072  0.06743041  0.29303821    -0.82500
H4105       H  0.40801861  0.10497866  0.24972774     0.18000
N4106       N  0.38673480  0.07984282  0.23327444    -0.81100
H4107       H  0.43665159  0.05345570  0.29654384     0.33700
H4108       H  0.43132720  0.07438638  0.30462821     0.38200
H4109       H  0.38655431  0.09376344  0.22955679     0.33600
H4110       H  0.39175738  0.07267794  0.22175789     0.30300
H4111       H  0.42184080  0.02640782  0.21739729     0.33600
H4112       H  0.41655163  0.04872253  0.21991747     0.30300
H4113       H  0.34820243  0.01735079  0.27126639     0.38200
H4114       H  0.33796308  0.02957795  0.25417690     0.33700
C4115       C  0.31959396  0.95216531  0.17397189    -0.20100
C4116       C  0.32201476  0.96202006  0.15724418     0.36200
C4117       C  0.30831218  0.96103717  0.14347816    -0.26000
C4118       C  0.29229854  0.95036501  0.14605620     0.02600
C4119       C  0.28987874  0.94054364  0.16275527     0.27400
C4120       C  0.30360635  0.94140820  0.17644412    -0.25200
N4121       N  0.33843796  0.97277359  0.15419035    -0.82600
H4122       H  0.31028194  0.96832654  0.13050097     0.13200
C4123       C  0.27893169  0.94848935  0.13057817     0.02600
N4124       N  0.27336264  0.92992118  0.16581143    -0.81100
H4125       H  0.30150942  0.93409504  0.18938762     0.18000
C4126       C  0.27604780  0.93106858  0.12286585    -0.26000
C4127       C  0.26544791  0.92883127  0.10681531     0.36100
C4128       C  0.25747593  0.94436419  0.09808075    -0.20000
C4129       C  0.25940199  0.96167759  0.10659521    -0.25200
C4130       C  0.26997118  0.96388124  0.12277156     0.27400
H4131       H  0.28277871  0.91914993  0.12888564     0.13200
N4132       N  0.26374721  0.91082219  0.09907493    -0.82500
H4133       H  0.25295639  0.97363227  0.10035855     0.18000
N4134       N  0.27184118  0.98168820  0.13117664    -0.81100
H4135       H  0.25741021  0.90233605  0.10895680     0.33700
H4136       H  0.27704567  0.90567965  0.09659405     0.38200
H4137       H  0.26443664  0.99157934  0.12371632     0.33600
H4138       H  0.26573925  0.98098012  0.14432789     0.30300
H4139       H  0.27369610  0.92350500  0.17878731     0.33600
H4140       H  0.26219528  0.93907798  0.16609158     0.30300
H4141       H  0.34966559  0.96368710  0.15385262     0.38200
H4142       H  0.33803324  0.97920467  0.14122603     0.33700
C4143       C  0.03808513  0.97768399  0.25589628    -0.20100
C4144       C  0.01974497  0.97643486  0.24917824     0.36200
C4145       C  0.00780456  0.99159198  0.25035436    -0.26000
C4146       C  0.01345517  0.00804636  0.25859490     0.02600
C4147       C  0.03104930  0.00907920  0.26671626     0.27400
C4148       C  0.04320246  0.99396798  0.26528545    -0.25200
N4149       N  0.01326816  0.95982162  0.24074853    -0.82600
H4150       H  0.99410469  0.99064444  0.24440318     0.13200
C4151       C  0.00129844  0.02442452  0.25707258     0.02600
N4152       N  0.03662351  0.02559894  0.27607858    -0.81100
H4153       H  0.05660021  0.99538502  0.27149813     0.18000
C4154       C  0.99258312  0.03174549  0.27276211    -0.26000
C4155       C  0.97965947  0.04614531  0.27113342     0.36100
C4156       C  0.97498822  0.05329606  0.25343634    -0.20000
C4157       C  0.98516047  0.04678731  0.23799827    -0.25200
C4158       C  0.99809305  0.03245394  0.23965678     0.27400
H4159       H  0.99543348  0.02592611  0.28628658     0.13200
N4160       N  0.97099149  0.05318901  0.28753038    -0.82500
H4161       H  0.98330401  0.05249877  0.22440522     0.18000
N4162       N  0.00790619  0.02578937  0.22361982    -0.81100
H4163       H  0.98134172  0.05822740  0.29620374     0.33700
H4164       H  0.96447914  0.04223992  0.29435784     0.38200
H4165       H  0.00392037  0.03296369  0.21172332     0.33600
H4166       H  0.02195977  0.02855499  0.22554585     0.30300
H4167       H  0.04991660  0.02412897  0.28152616     0.33600
H4168       H  0.03735622  0.03614492  0.26622477     0.30300
H4169       H  0.00909071  0.96290893  0.22725101     0.38200
H4170       H  0.00169044  0.95524871  0.24818585     0.33700
C4171       C  0.75107494  0.04725489  0.32704135    -0.20100
C4172       C  0.75261391  0.03388500  0.31290652     0.36200
C4173       C  0.73802548  0.03165037  0.30036328    -0.26000
C4174       C  0.72227593  0.04291744  0.30119344     0.02600
C4175       C  0.72121828  0.05695433  0.31463199     0.27400
C4176       C  0.73555698  0.05887639  0.32749676    -0.25200
N4177       N  0.76887768  0.02256339  0.31136148    -0.82600
H4178       H  0.73883443  0.02089949  0.29001493     0.13200
C4179       C  0.70678369  0.03959735  0.28822940     0.02600
N4180       N  0.70551120  0.06910725  0.31522907    -0.81100
H4181       H  0.73440962  0.06928877  0.33815881     0.18000
C4182       C  0.68888137  0.03701142  0.29542907    -0.26000
C4183       C  0.67372557  0.03429351  0.28370512     0.36100
C4184       C  0.67664422  0.03374972  0.26438201    -0.20000
C4185       C  0.69460926  0.03573703  0.25719195    -0.25200
C4186       C  0.70968997  0.03895278  0.26889219     0.27400
H4187       H  0.68674436  0.03709491  0.31029825     0.13200
N4188       N  0.65547102  0.03189722  0.29136233    -0.82500
H4189       H  0.69680347  0.03535239  0.24233312     0.18000
N4190       N  0.72784382  0.04193646  0.26120774    -0.81100
H4191       H  0.65571862  0.03291847  0.30580397     0.33700
H4192       H  0.65120876  0.01849982  0.28830896     0.38200
H4193       H  0.72759923  0.04096592  0.24676290     0.33600
H4194       H  0.73170188  0.05543975  0.26432484     0.30300
H4195       H  0.70679597  0.07858603  0.32601649     0.33600
H4196       H  0.70548451  0.07670142  0.30290764     0.30300
H4197       H  0.77997022  0.03121574  0.30802050     0.38200
H4198       H  0.76763926  0.01329724  0.30038115     0.33700
C4199       C  0.76909916  0.00276519  0.39657877    -0.20100
C4200       C  0.78017784  0.99078898  0.40730565     0.36200
C4201       C  0.77230259  0.97459181  0.41473585    -0.26000
C4202       C  0.75354700  0.97041464  0.41203315     0.02600
C4203       C  0.74242560  0.98251333  0.40172026     0.27400
C4204       C  0.75027863  0.99853342  0.39412785    -0.25200
N4205       N  0.79920952  0.99519488  0.41086676    -0.82600
H4206       H  0.78071091  0.96531512  0.42292298     0.13200
C4207       C  0.74552223  0.95354268  0.42045346     0.02600
N4208       N  0.72319242  0.97839603  0.39894369    -0.81100
H4209       H  0.74164216  0.00764725  0.38600366     0.18000
C4210       C  0.73387118  0.95513946  0.43595019    -0.26000
C4211       C  0.72677013  0.93944082  0.44498595     0.36100
C4212       C  0.73133958  0.92172229  0.43820784    -0.20000
C4213       C  0.74231793  0.92028422  0.42210140    -0.25200
C4214       C  0.74935881  0.93601735  0.41311050     0.27400
H4215       H  0.73077168  0.96871552  0.44133255     0.13200
N4216       N  0.71551329  0.94151302  0.46133452    -0.82500
H4217       H  0.74575533  0.90679615  0.41670801     0.18000
N4218       N  0.76054401  0.93430123  0.39667236    -0.81100
H4219       H  0.71293475  0.95542782  0.46398369     0.33700
H4220       H  0.72315793  0.93661945  0.47256592     0.38200
H4221       H  0.76211433  0.92045580  0.39306428     0.33600
H4222       H  0.75337655  0.94058286  0.38581469     0.30300
H4223       H  0.71684742  0.98876800  0.39117283     0.33600
H4224       H  0.72247242  0.96637202  0.39105272     0.30300
H4225       H  0.79938384  0.00715059  0.41890598     0.38200
H4226       H  0.80539720  0.98487810  0.41883731     0.33700
C4227       C  0.74244928  0.12791514  0.49464639    -0.20100
C4228       C  0.75766751  0.13675749  0.48588445     0.36200
C4229       C  0.76632695  0.12835890  0.47055373    -0.26000
C4230       C  0.75994981  0.11154137  0.46365477     0.02600
C4231       C  0.74455185  0.10295891  0.47202517     0.27400
C4232       C  0.73603768  0.11115368  0.48749567    -0.25200
N4233       N  0.76420688  0.15425225  0.49241863    -0.82600
H4234       H  0.77799196  0.13500418  0.46382541     0.13200
C4235       C  0.76887759  0.10328979  0.44710323     0.02600
N4236       N  0.73759504  0.08596171  0.46468054    -0.81100
H4237       H  0.72439030  0.10433379  0.49406080     0.18000
C4238       C  0.78019637  0.08776342  0.44916821    -0.26000
C4239       C  0.78708760  0.07823187  0.43362118     0.36100
C4240       C  0.78219555  0.08421744  0.41560043    -0.20000
C4241       C  0.77159388  0.10036112  0.41367904    -0.25200
C4242       C  0.76490246  0.10994437  0.42924449     0.27400
H4243       H  0.78326676  0.08282031  0.46299081     0.13200
N4244       N  0.79833870  0.06210607  0.43616134    -0.82500
H4245       H  0.76789746  0.10515808  0.39996961     0.18000
N4246       N  0.75359193  0.12608135  0.42701705    -0.81100
H4247       H  0.79996409  0.05919800  0.45025071     0.33700
H4248       H  0.81154008  0.06514234  0.43100651     0.38200
H4249       H  0.75200610  0.12924627  0.41298207     0.33600
H4250       H  0.74039177  0.12300889  0.43215842     0.30300
H4251       H  0.72626002  0.08135420  0.47246325     0.33600
H4252       H  0.73268119  0.08865581  0.45134933     0.30300
H4253       H  0.75374279  0.16391408  0.49006004     0.38200
H4254       H  0.77567975  0.15861442  0.48469063     0.33700
C4255       C  0.83500609  0.05774977  0.33661764    -0.20100
C4256       C  0.84012981  0.07528063  0.32962425     0.36200
C4257       C  0.85369462  0.07660777  0.31555788    -0.26000
C4258       C  0.86256931  0.06088813  0.30861063     0.02600
C4259       C  0.85777740  0.04345661  0.31579053     0.27400
C4260       C  0.84404664  0.04205447  0.32964074    -0.25200
N4261       N  0.83173601  0.09169915  0.33691726    -0.82600
H4262       H  0.85776791  0.09001178  0.31033425     0.13200
C4263       C  0.87825535  0.06296108  0.29531612     0.02600
N4264       N  0.86694902  0.02724530  0.30896748    -0.81100
H4265       H  0.84020447  0.02856800  0.33480610     0.18000
C4266       C  0.89605924  0.05895583  0.30159451    -0.26000
C4267       C  0.91160323  0.06129739  0.29012286     0.36100
C4268       C  0.90933179  0.06719661  0.27151990    -0.20000
C4269       C  0.89143282  0.07133298  0.26521736    -0.25200
C4270       C  0.87583385  0.06923904  0.27695636     0.27400
H4271       H  0.89787220  0.05452172  0.31581716     0.13200
N4272       N  0.92976203  0.05866443  0.29769145    -0.82500
H4273       H  0.88964316  0.07619151  0.25113962     0.18000
N4274       N  0.85759036  0.07339968  0.27034450    -0.81100
H4275       H  0.92900973  0.05423446  0.31146595     0.33700
H4276       H  0.93631804  0.07148812  0.29781898     0.38200
H4277       H  0.85816534  0.07787739  0.25657691     0.33600
H4278       H  0.85001712  0.06114256  0.27042959     0.30300
H4279       H  0.86195826  0.01549045  0.31571553     0.33600
H4280       H  0.86357371  0.02585845  0.29497665     0.30300
H4281       H  0.83575063  0.09284730  0.35076185     0.38200
H4282       H  0.83684797  0.10336887  0.33011139     0.33700
C4283       C  0.03509053  0.76301495  0.32442129    -0.20100
C4284       C  0.02252235  0.76324591  0.30949071     0.36200
C4285       C  0.02354266  0.74933722  0.29610705    -0.26000
C4286       C  0.03673188  0.73528261  0.29743249     0.02600
C4287       C  0.04983423  0.73549960  0.31175078     0.27400
C4288       C  0.04907703  0.74958002  0.32496229    -0.25200
N4289       N  0.00845640  0.77719492  0.30823937    -0.82600
H4290       H  0.01361243  0.74904076  0.28491909     0.13200
C4291       C  0.03547816  0.71952694  0.28473693     0.02600
N4292       N  0.06326292  0.72096797  0.31328503    -0.81100
H4293       H  0.05878450  0.74938634  0.33633916     0.18000
C4294       C  0.04937997  0.71664818  0.27146441    -0.26000
C4295       C  0.04827162  0.70186057  0.25903036     0.36100
C4296       C  0.03312840  0.68964481  0.26028684    -0.20000
C4297       C  0.01924364  0.69262970  0.27360503    -0.25200
C4298       C  0.02031729  0.70742559  0.28592588     0.27400
H4299       H  0.06091112  0.72614511  0.27064119     0.13200
N4300       N  0.06216416  0.69948667  0.24490278    -0.82500
H4301       H  0.00763842  0.68323029  0.27457248     0.18000
N4302       N  0.00615515  0.71021537  0.29972257    -0.81100
H4303       H  0.07234297  0.70963951  0.24595698     0.33700
H4304       H  0.05577453  0.70146605  0.23208732     0.38200
H4305       H  0.99588670  0.70015175  0.29866664     0.33600
H4306       H  0.01224009  0.70849291  0.31271852     0.30300
H4307       H  0.07189508  0.72318765  0.32463305     0.33600
H4308       H  0.05609118  0.70874909  0.31599358     0.30300
H4309       H  0.01511981  0.78979679  0.30610687     0.38200
H4310       H  0.00009178  0.77502094  0.29667997     0.33700
C4311       C  0.10051979  0.74409016  0.49947287    -0.20100
C4312       C  0.08791538  0.73335349  0.48921465     0.36200
C4313       C  0.07976615  0.74082989  0.47318940    -0.26000
C4314       C  0.08423178  0.75860425  0.46687405     0.02600
C4315       C  0.09698655  0.76923131  0.47697544     0.27400
C4316       C  0.10477908  0.76196960  0.49323032    -0.25200
N4317       N  0.08308943  0.71509187  0.49522265    -0.82600
H4318       H  0.06979957  0.73274610  0.46556709     0.13200
C4319       C  0.07528548  0.76594582  0.44979324     0.02600
N4320       N  0.10213968  0.78728471  0.47057702    -0.81100
H4321       H  0.11447725  0.77029520  0.50093798     0.18000
C4322       C  0.06574031  0.78279397  0.45046586    -0.26000
C4323       C  0.05662967  0.78992538  0.43479980     0.36100
C4324       C  0.05708163  0.77997175  0.41798812    -0.20000
C4325       C  0.06673249  0.76313849  0.41737502    -0.25200
C4326       C  0.07592313  0.75611620  0.43297696     0.27400
H4327       H  0.06507258  0.79025111  0.46342991     0.13200
N4328       N  0.04685905  0.80711909  0.43604992    -0.82500
H4329       H  0.06717085  0.75535062  0.40460316     0.18000
N4330       N  0.08603410  0.73909878  0.43176000    -0.81100
H4331       H  0.04869534  0.81306049  0.44908755     0.33700
H4332       H  0.03273913  0.80423643  0.43497206     0.38200
H4333       H  0.08501799  0.73349518  0.41847921     0.33600
H4334       H  0.10001316  0.74210037  0.43383300     0.30300
H4335       H  0.11155991  0.79335396  0.47963790     0.33600
H4336       H  0.10901437  0.78573288  0.45789188     0.30300
H4337       H  0.09477079  0.70678720  0.49337474     0.38200
H4338       H  0.07283402  0.70955137  0.48674592     0.33700
C4339       C  0.90315426  0.72424641  0.43368422    -0.20100
C4340       C  0.92136406  0.72270124  0.44062863     0.36200
C4341       C  0.93593012  0.73201052  0.43155465    -0.26000
C4342       C  0.93274051  0.74240108  0.41550240     0.02600
C4343       C  0.91492394  0.74285810  0.40778761     0.27400
C4344       C  0.90031573  0.73378303  0.41693096    -0.25200
N4345       N  0.92496324  0.71214773  0.45708369    -0.82600
H4346       H  0.94981001  0.73135546  0.43711307     0.13200
C4347       C  0.94820368  0.75270500  0.40679613     0.02600
N4348       N  0.91170235  0.75284484  0.39088816    -0.81100
H4349       H  0.88648617  0.73486636  0.41132646     0.18000
C4350       C  0.95743597  0.74498765  0.39163095    -0.26000
C4351       C  0.97228265  0.75416949  0.38301571     0.36100
C4352       C  0.97811909  0.77151376  0.38985429    -0.20000
C4353       C  0.96848430  0.77939983  0.40482746    -0.25200
C4354       C  0.95357266  0.77014270  0.41337442     0.27400
H4355       H  0.95305440  0.73166533  0.38656147     0.13200
N4356       N  0.98150443  0.74580146  0.36745985    -0.82500
H4357       H  0.97287413  0.79260203  0.41017544     0.18000
N4358       N  0.94402300  0.77821272  0.42887535    -0.81100
H4359       H  0.97585076  0.73288246  0.36458851     0.33700
H4360       H  0.97897701  0.75405233  0.35585783     0.38200
H4361       H  0.94978542  0.79098267  0.43215903     0.33600
H4362       H  0.93039233  0.78075316  0.42482545     0.30300
H4363       H  0.89786514  0.75169158  0.38692141     0.33600
H4364       H  0.91405129  0.76678778  0.39354015     0.30300
H4365       H  0.92210776  0.69837475  0.45405044     0.38200
H4366       H  0.93898702  0.71274114  0.46049422     0.33700
C4367       C  0.03807366  0.84153082  0.34002372    -0.20100
C4368       C  0.02913981  0.85876686  0.34101671     0.36200
C4369       C  0.03206676  0.87185550  0.32678848    -0.26000
C4370       C  0.04339530  0.86792691  0.31133270     0.02600
C4371       C  0.05212781  0.85054848  0.31032155     0.27400
C4372       C  0.04967123  0.83777030  0.32479961    -0.25200
N4373       N  0.01731537  0.86299063  0.35650110    -0.82600
H4374       H  0.02557824  0.88526164  0.32782903     0.13200
C4375       C  0.04644172  0.88226804  0.29664180     0.02600
N4376       N  0.06309814  0.84573774  0.29436733    -0.81100
H4377       H  0.05626671  0.82440373  0.32378312     0.18000
C4378       C  0.06456027  0.88693145  0.29131133    -0.26000
C4379       C  0.06814627  0.90111158  0.27848555     0.36100
C4380       C  0.05332117  0.91136053  0.27087797    -0.20000
C4381       C  0.03514179  0.90600297  0.27554756    -0.25200
C4382       C  0.03155134  0.89160700  0.28819957     0.27400
H4383       H  0.07616073  0.87988888  0.29761073     0.13200
N4384       N  0.08695950  0.90526819  0.27389274    -0.82500
H4385       H  0.02357989  0.91324932  0.26942936     0.18000
N4386       N  0.01281260  0.88649678  0.29254845    -0.81100
H4387       H  0.09288600  0.89353915  0.26794352     0.33700
H4388       H  0.09404275  0.90796609  0.28617496     0.38200
H4389       H  0.00346656  0.89477267  0.28530738     0.33600
H4390       H  0.01084913  0.87302665  0.28789211     0.30300
H4391       H  0.06856780  0.83248152  0.29577302     0.33600
H4392       H  0.05427868  0.84541808  0.28294470     0.30300
H4393       H  0.02554845  0.86317670  0.36835816     0.38200
H4394       H  0.01173638  0.87620361  0.35510355     0.33700
C4395       C  0.24002788  0.96206920  0.33034191    -0.20100
C4396       C  0.24120135  0.94523742  0.32069540     0.36200
C4397       C  0.25286946  0.94396302  0.30514799    -0.26000
C4398       C  0.26323860  0.95917766  0.29918641     0.02600
C4399       C  0.26177678  0.97607757  0.30860471     0.27400
C4400       C  0.24999842  0.97740579  0.32400000    -0.25200
N4401       N  0.23047387  0.92961214  0.32661575    -0.82600
H4402       H  0.25407068  0.93105351  0.29774753     0.13200
C4403       C  0.27670560  0.95704110  0.28394884     0.02600
N4404       N  0.27263861  0.99165040  0.30275999    -0.81100
H4405       H  0.24903014  0.99032094  0.33142609     0.18000
C4406       C  0.27483912  0.96782199  0.26795963    -0.26000
C4407       C  0.28879421  0.96815518  0.25437353     0.36100
C4408       C  0.30492746  0.95742796  0.25697763    -0.20000
C4409       C  0.30620188  0.94586806  0.27255297    -0.25200
C4410       C  0.29232789  0.94570357  0.28616772     0.27400
H4411       H  0.26267249  0.97640455  0.26638479     0.13200
N4412       N  0.28679293  0.97968630  0.23829089    -0.82500
H4413       H  0.31841441  0.93744969  0.27452882     0.18000
N4414       N  0.29436656  0.93465250  0.30259311    -0.81100
H4415       H  0.27444897  0.98717876  0.23896499     0.33700
H4416       H  0.28570137  0.97104509  0.22678966     0.38200
H4417       H  0.30664430  0.92705139  0.30204269     0.33600
H4418       H  0.29555384  0.94359082  0.31385522     0.30300
H4419       H  0.26989798  0.00305270  0.31114770     0.33600
H4420       H  0.28657171  0.98831048  0.30469524     0.30300
H4421       H  0.21650512  0.93297909  0.32498384     0.38200
H4422       H  0.23304226  0.91830152  0.31804945     0.33700
C4423       C  0.22288304  0.93699336  0.42182410    -0.20100
C4424       C  0.21078703  0.92647524  0.43303131     0.36200
C4425       C  0.21775592  0.91760052  0.44889060    -0.26000
C4426       C  0.23649422  0.91912123  0.45371531     0.02600
C4427       C  0.24851817  0.92967540  0.44253819     0.27400
C4428       C  0.24163894  0.93829940  0.42662447    -0.25200
N4429       N  0.19161378  0.92466759  0.42820172    -0.82600
H4430       H  0.20859955  0.90936597  0.45747904     0.13200
C4431       C  0.24346988  0.90976263  0.47056653     0.02600
N4432       N  0.26760754  0.93185608  0.44760048    -0.81100
H4433       H  0.25093383  0.94651276  0.41816459     0.18000
C4434       C  0.25810247  0.89714230  0.46893803    -0.26000
C4435       C  0.26577475  0.88868508  0.48464107     0.36100
C4436       C  0.25851329  0.89285694  0.50233150    -0.20000
C4437       C  0.24361200  0.90521301  0.50389082    -0.25200
C4438       C  0.23617029  0.91389213  0.48821412     0.27400
H4439       H  0.26357995  0.89393769  0.45531583     0.13200
N4440       N  0.28076503  0.87581137  0.48263519    -0.82500
H4441       H  0.23804752  0.90849114  0.51745986     0.18000
N4442       N  0.22154045  0.92718678  0.49016489    -0.81100
H4443       H  0.28466354  0.87457166  0.46872338     0.33700
H4444       H  0.27587817  0.86289059  0.48678241     0.38200
H4445       H  0.21773035  0.92863350  0.50407979     0.33600
H4446       H  0.22674622  0.93994134  0.48588118     0.30300
H4447       H  0.27461416  0.93999872  0.43787826     0.33600
H4448       H  0.26793630  0.93901239  0.46014293     0.30300
H4449       H  0.19101392  0.91753937  0.41565440     0.38200
H4450       H  0.18461643  0.91659647  0.43799178     0.33700
C4451       C  0.22199107  0.01730423  0.40037731    -0.20100
C4452       C  0.21168554  0.02707259  0.41385134     0.36200
C4453       C  0.21942959  0.04291877  0.42189742    -0.26000
C4454       C  0.23714391  0.04907842  0.41671809     0.02600
C4455       C  0.24736397  0.03935969  0.40332110     0.27400
C4456       C  0.23970741  0.02364427  0.39532999    -0.25200
N4457       N  0.19362094  0.02087293  0.41946197    -0.82600
H4458       H  0.21167710  0.05051032  0.43226081     0.13200
C4459       C  0.24481749  0.06599216  0.42500329     0.02600
N4460       N  0.26548283  0.04556162  0.39782196    -0.81100
H4461       H  0.24779340  0.01625910  0.38508017     0.18000
C4462       C  0.26143728  0.06505197  0.43491050    -0.26000
C4463       C  0.26957800  0.08097327  0.44227942     0.36100
C4464       C  0.26064679  0.09813554  0.43990157    -0.20000
C4465       C  0.24410933  0.09896039  0.42975236    -0.25200
C4466       C  0.23616530  0.08310630  0.42221414     0.27400
H4467       H  0.26808803  0.05181176  0.43682333     0.13200
N4468       N  0.28664608  0.07965796  0.45231869    -0.82500
H4469       H  0.23717835  0.11204294  0.42779818     0.18000
N4470       N  0.21938931  0.08430727  0.41166421    -0.81100
H4471       H  0.29097458  0.06595009  0.45328124     0.33700
H4472       H  0.29677013  0.08653687  0.44456310     0.38200
H4473       H  0.21468188  0.09790863  0.41105080     0.33600
H4474       H  0.22252205  0.08043182  0.39806496     0.30300
H4475       H  0.27129618  0.03669411  0.38799087     0.33600
H4476       H  0.26395508  0.05834337  0.39132460     0.30300
H4477       H  0.18484566  0.02242178  0.40810567     0.38200
H4478       H  0.18827427  0.02929298  0.42993734     0.33700
C4479       C  0.16206513  0.95824649  0.34325129    -0.20100
C4480       C  0.14852990  0.97150617  0.33855584     0.36200
C4481       C  0.13602160  0.96769871  0.32420039    -0.26000
C4482       C  0.13689304  0.95111650  0.31427014     0.02600
C4483       C  0.15020457  0.93783582  0.31902407     0.27400
C4484       C  0.16265202  0.94153241  0.33341675    -0.25200
N4485       N  0.14735135  0.98866595  0.34837184    -0.82600
H4486       H  0.12563383  0.97781958  0.32053415     0.13200
C4487       C  0.12327233  0.94774513  0.29935387     0.02600
N4488       N  0.15092199  0.92060715  0.30930193    -0.81100
H4489       H  0.17307448  0.93134815  0.33676942     0.18000
C4490       C  0.12913258  0.94605379  0.28079786    -0.26000
C4491       C  0.11615344  0.94510979  0.26627514     0.36100
C4492       C  0.09714543  0.94597806  0.27054542    -0.20000
C4493       C  0.09144593  0.94634435  0.28920908    -0.25200
C4494       C  0.10427937  0.94708024  0.30361275     0.27400
H4495       H  0.14380309  0.94617534  0.27762950     0.13200
N4496       N  0.12215959  0.94367665  0.24733194    -0.82500
H4497       H  0.07679647  0.94656978  0.29250239     0.18000
N4498       N  0.09812985  0.94749772  0.32258618    -0.81100
H4499       H  0.13659924  0.94303242  0.24658574     0.33700
H4500       H  0.11820284  0.95573445  0.24048620     0.38200
H4501       H  0.08368631  0.94701209  0.32335055     0.33600
H4502       H  0.10297433  0.93552491  0.32900612     0.30300
H4503       H  0.16158846  0.91234015  0.31442072     0.33600
H4504       H  0.13856042  0.91362378  0.31206313     0.30300
H4505       H  0.15879433  0.99658641  0.34445587     0.38200
H4506       H  0.13570866  0.99611265  0.34418327     0.33700
C4507       C  0.94848846  0.26597433  0.33323103    -0.20100
C4508       C  0.94614528  0.28491294  0.33682853     0.36200
C4509       C  0.94493307  0.29719459  0.32187987    -0.26000
C4510       C  0.94588207  0.29080152  0.30359742     0.02600
C4511       C  0.94720447  0.27181739  0.30003761     0.27400
C4512       C  0.94875443  0.25955687  0.31494303    -0.25200
N4513       N  0.94576627  0.29165789  0.35554200    -0.82600
H4514       H  0.94395311  0.31185763  0.32444799     0.13200
C4515       C  0.94698949  0.30427220  0.28837732     0.02600
N4516       N  0.94716610  0.26517580  0.28129847    -0.81100
H4517       H  0.95026355  0.24494943  0.31230826     0.18000
C4518       C  0.96319303  0.30502772  0.27767293    -0.26000
C4519       C  0.96562079  0.31864148  0.26410265     0.36100
C4520       C  0.95139276  0.33169425  0.26120748    -0.20000
C4521       C  0.93495295  0.33052561  0.27164545    -0.25200
C4522       C  0.93258706  0.31686277  0.28517308     0.27400
H4523       H  0.97422321  0.29527506  0.28035024     0.13200
N4524       N  0.98258743  0.31940367  0.25361746    -0.82500
H4525       H  0.92392206  0.34035797  0.26932813     0.18000
N4526       N  0.91569659  0.31571260  0.29572807    -0.81100
H4527       H  0.99115812  0.30829036  0.25695004     0.33700
H4528       H  0.98966326  0.33126054  0.25767925     0.38200
H4529       H  0.90647073  0.32603827  0.29167870     0.33600
H4530       H  0.90942737  0.30315623  0.29254177     0.30300
H4531       H  0.94820331  0.25082380  0.28108029     0.33600
H4532       H  0.93431918  0.26848841  0.27558630     0.30300
H4533       H  0.95877402  0.28919210  0.36130853     0.38200
H4534       H  0.94382197  0.30592287  0.35570127     0.33700
C4535       C  0.00814751  0.25024220  0.39584674    -0.20100
C4536       C  0.01569779  0.24395011  0.41273358     0.36200
C4537       C  0.03182987  0.25221672  0.41960246    -0.26000
C4538       C  0.04044508  0.26680695  0.41018179     0.02600
C4539       C  0.03296551  0.27318519  0.39337473     0.27400
C4540       C  0.01688122  0.26484676  0.38637778    -0.25200
N4541       N  0.00679518  0.22949727  0.42308814    -0.82600
H4542       H  0.03764047  0.24742459  0.43255507     0.13200
C4543       C  0.05704736  0.27539467  0.41853497     0.02600
N4544       N  0.04161475  0.28818627  0.38361755    -0.81100
H4545       H  0.01110253  0.26982936  0.37348718     0.18000
C4546       C  0.07439786  0.27330327  0.40998367    -0.26000
C4547       C  0.09066586  0.27925237  0.41880908     0.36100
C4548       C  0.08943999  0.28757725  0.43647649    -0.20000
C4549       C  0.07194555  0.29054016  0.44446938    -0.25200
C4550       C  0.05576514  0.28444759  0.43573492     0.27400
H4551       H  0.07528213  0.26642657  0.39670439     0.13200
N4552       N  0.10837994  0.27658527  0.41005448    -0.82500
H4553       H  0.07092639  0.29691027  0.45799205     0.18000
N4554       N  0.03801994  0.28696496  0.44446817    -0.81100
H4555       H  0.10685320  0.27012466  0.39722550     0.33700
H4556       H  0.11395648  0.28959807  0.40735381     0.38200
H4557       H  0.03944696  0.29363134  0.45719738     0.33600
H4558       H  0.03026271  0.29572115  0.43601225     0.30300
H4559       H  0.03442831  0.29118348  0.37144753     0.33600
H4560       H  0.04060287  0.29986163  0.39200351     0.30300
H4561       H  0.99402587  0.23455032  0.42769756     0.38200
H4562       H  0.01436309  0.22626990  0.43496287     0.33700
C4563       C  0.92644692  0.23904620  0.42208935    -0.20100
C4564       C  0.93103574  0.23220279  0.43984571     0.36200
C4565       C  0.92250140  0.23987738  0.45560224    -0.26000
C4566       C  0.90939484  0.25402719  0.45395112     0.02600
C4567       C  0.90418237  0.26026879  0.43628328     0.27400
C4568       C  0.91277318  0.25276111  0.42055771    -0.25200
N4569       N  0.94460530  0.21788158  0.44190966    -0.82600
H4570       H  0.92624211  0.23499767  0.46927769     0.13200
C4571       C  0.90101463  0.26206189  0.47084503     0.02600
N4572       N  0.89027806  0.27431292  0.43442594    -0.81100
H4573       H  0.90904393  0.25801836  0.40702806     0.18000
C4574       C  0.90390669  0.28071202  0.47492734    -0.26000
C4575       C  0.89588157  0.28883604  0.49072910     0.36100
C4576       C  0.88497704  0.27789372  0.50280338    -0.20000
C4577       C  0.88221054  0.25920638  0.49858213    -0.25200
C4578       C  0.88994486  0.25125130  0.48266544     0.27400
H4579       H  0.91241282  0.28894141  0.46568172     0.13200
N4580       N  0.89893558  0.30800286  0.49453957    -0.82500
H4581       H  0.87381827  0.25070831  0.50767093     0.18000
N4582       N  0.88643920  0.23227462  0.47830926    -0.81100
H4583       H  0.90792886  0.31375617  0.48471594     0.33700
H4584       H  0.88627903  0.31478722  0.49295722     0.38200
H4585       H  0.87807940  0.22618579  0.48847720     0.33600
H4586       H  0.87890064  0.23197587  0.46599481     0.30300
H4587       H  0.88811606  0.27748239  0.42046919     0.33600
H4588       H  0.87782814  0.26891749  0.43949635     0.30300
H4589       H  0.93915153  0.20594957  0.43600604     0.38200
H4590       H  0.94673878  0.21489801  0.45591527     0.33700
C4591       C  0.94537950  0.11358312  0.27302449    -0.20100
C4592       C  0.93020960  0.11710607  0.28497481     0.36200
C4593       C  0.93129538  0.13116900  0.29825419    -0.26000
C4594       C  0.94714482  0.14214410  0.29980657     0.02600
C4595       C  0.96185660  0.13952972  0.28713788     0.27400
C4596       C  0.96091942  0.12517796  0.27405592    -0.25200
N4597       N  0.91391464  0.10601382  0.28436349    -0.82600
H4598       H  0.91984143  0.13316543  0.30780104     0.13200
C4599       C  0.94829223  0.15603303  0.31497192     0.02600
N4600       N  0.97771107  0.15143599  0.28767388    -0.81100
H4601       H  0.97250113  0.12285531  0.26475344     0.18000
C4602       C  0.96276884  0.15497637  0.32785252    -0.26000
C4603       C  0.96452231  0.16802356  0.34216777     0.36100
C4604       C  0.95142300  0.18239251  0.34373735    -0.20000
C4605       C  0.93661320  0.18304812  0.33120192    -0.25200
C4606       C  0.93503606  0.17019097  0.31673939     0.27400
H4607       H  0.97278058  0.14392412  0.32667427     0.13200
N4608       N  0.97957034  0.16674847  0.35503423    -0.82500
H4609       H  0.92664093  0.19415346  0.33217048     0.18000
N4610       N  0.92032732  0.17177262  0.30350832    -0.81100
H4611       H  0.98803814  0.15549546  0.35187670     0.33700
H4612       H  0.97388859  0.16418256  0.36814179     0.38200
H4613       H  0.91177550  0.18295130  0.30669676     0.33600
H4614       H  0.92633493  0.17461995  0.29060282     0.30300
H4615       H  0.98729483  0.14774926  0.27742632     0.33600
H4616       H  0.97320709  0.16473510  0.28443748     0.30300
H4617       H  0.91185355  0.10021868  0.29748612     0.38200
H4618       H  0.90265719  0.11461191  0.28158343     0.33700
C4619       C  0.00730559  0.01910122  0.99445980    -0.20100
C4620       C  0.99908060  0.03038277  0.98050294     0.36200
C4621       C  0.00980633  0.04294641  0.96984093    -0.26000
C4622       C  0.02901231  0.04504679  0.97234546     0.02600
C4623       C  0.03703752  0.03499509  0.98704083     0.27400
C4624       C  0.02623486  0.02286327  0.99809556    -0.25200
N4625       N  0.97970853  0.02902490  0.97676093    -0.82600
H4626       H  0.00291408  0.05111049  0.95937112     0.13200
C4627       C  0.04046655  0.05742158  0.95947068     0.02600
N4628       N  0.05641598  0.03666754  0.99065548    -0.81100
H4629       H  0.03306622  0.01655653  0.00974046     0.18000
C4630       C  0.05346927  0.07000515  0.96650029    -0.26000
C4631       C  0.06480834  0.08109459  0.95488393     0.36100
C4632       C  0.06383403  0.07976906  0.93502020    -0.20000
C4633       C  0.04958504  0.06808464  0.92833540    -0.25200
C4634       C  0.03858335  0.05679756  0.94003065     0.27400
H4635       H  0.05465720  0.07159081  0.98135933     0.13200
N4636       N  0.07673748  0.09387538  0.96404045    -0.82500
H4637       H  0.04654237  0.06744967  0.91375842     0.18000
N4638       N  0.02574079  0.04426032  0.93185069    -0.81100
H4639       H  0.07190184  0.10722949  0.96182733     0.33700
H4640       H  0.09023793  0.09260384  0.95906542     0.38200
H4641       H  0.01648221  0.05186828  0.92380112     0.33600
H4642       H  0.03311477  0.03546924  0.92305188     0.30300
H4643       H  0.05799556  0.04106880  0.00433070     0.33600
H4644       H  0.06239496  0.02361051  0.98946573     0.30300
H4645       H  0.97808806  0.02550143  0.96282930     0.38200
H4646       H  0.97376516  0.04199321  0.97878393     0.33700
C4647       C  0.07142334  0.08839084  0.90003932    -0.20100
C4648       C  0.07424239  0.07095276  0.89133965     0.36200
C4649       C  0.07265545  0.06900749  0.87195641    -0.26000
C4650       C  0.06863813  0.08408309  0.86049071     0.02600
C4651       C  0.06578555  0.10132669  0.86875278     0.27400
C4652       C  0.06730609  0.10336636  0.88801447    -0.25200
N4653       N  0.07940759  0.05518038  0.90208762    -0.82600
H4654       H  0.07483421  0.05558826  0.86579524     0.13200
C4655       C  0.06738947  0.08179244  0.83990918     0.02600
N4656       N  0.06214789  0.11716798  0.85747554    -0.81100
H4657       H  0.06641110  0.11730028  0.89294037     0.18000
C4658       C  0.05102845  0.08694995  0.83089950    -0.26000
C4659       C  0.04895131  0.08465013  0.81169106     0.36100
C4660       C  0.06342578  0.07673011  0.80112867    -0.20000
C4661       C  0.08009515  0.07220503  0.80990826    -0.25200
C4662       C  0.08225668  0.07473319  0.82921123     0.27400
H4663       H  0.03964505  0.09247880  0.83898757     0.13200
N4664       N  0.03195087  0.08988350  0.80285083    -0.82500
H4665       H  0.09115016  0.06604003  0.80183234     0.18000
N4666       N  0.09940141  0.07002094  0.83802115    -0.81100
H4667       H  0.02264242  0.09540414  0.81249077     0.33700
H4668       H  0.03502292  0.10038637  0.79339469     0.38200
H4669       H  0.10889758  0.06498790  0.82829020     0.33600
H4670       H  0.10504303  0.08214594  0.84332520     0.30300
H4671       H  0.04956824  0.12288022  0.86181210     0.33600
H4672       H  0.07256160  0.12684956  0.85982725     0.30300
H4673       H  0.06962285  0.04483174  0.89988115     0.38200
H4674       H  0.09217759  0.05043132  0.89717393     0.33700
C4675       C  0.07376913  0.11239306  0.92655221    -0.20100
C4676       C  0.05614838  0.12113301  0.92566855     0.36200
C4677       C  0.05460967  0.14045538  0.92743894    -0.26000
C4678       C  0.07019837  0.15150453  0.93072529     0.02600
C4679       C  0.08730639  0.14279630  0.93358379     0.27400
C4680       C  0.08877879  0.12361186  0.93223174    -0.25200
N4681       N  0.03987201  0.11053986  0.92206189    -0.82600
H4682       H  0.04114480  0.14687057  0.92609289     0.13200
C4683       C  0.06842430  0.17199896  0.93223990     0.02600
N4684       N  0.10349727  0.15346590  0.93741796    -0.81100
H4685       H  0.10208878  0.11779547  0.93558456     0.18000
C4686       C  0.07419339  0.18066868  0.94856235    -0.26000
C4687       C  0.07237505  0.19977612  0.95094563     0.36100
C4688       C  0.06426023  0.21060418  0.93686295    -0.20000
C4689       C  0.05913088  0.20215554  0.92020828    -0.25200
C4690       C  0.06123362  0.18294263  0.91770706     0.27400
H4691       H  0.07974873  0.17239115  0.95973217     0.13200
N4692       N  0.07808252  0.20822965  0.96797549    -0.82500
H4693       H  0.05270378  0.21039657  0.90950373     0.18000
N4694       N  0.05586124  0.17446831  0.90060285    -0.81100
H4695       H  0.08362638  0.19842397  0.97700334     0.33700
H4696       H  0.08874510  0.21744956  0.96478896     0.38200
H4697       H  0.05078977  0.18435165  0.89138185     0.33600
H4698       H  0.06777979  0.16893841  0.89449597     0.30300
H4699       H  0.10888193  0.14902813  0.95007740     0.33600
H4700       H  0.11333301  0.15073266  0.92710098     0.30300
H4701       H  0.03060862  0.11254445  0.93305112     0.38200
H4702       H  0.03373738  0.11563988  0.91001356     0.33700
C4703       C  0.09794457  0.08671602  0.92115889    -0.20100
C4704       C  0.10690208  0.07268096  0.93164635     0.36200
C4705       C  0.12645270  0.07101327  0.93117145    -0.26000
C4706       C  0.13750582  0.08235013  0.91982814     0.02600
C4707       C  0.12870762  0.09508256  0.90816465     0.27400
C4708       C  0.10944413  0.09690569  0.90872097    -0.25200
N4709       N  0.09653098  0.05960761  0.94228822    -0.82600
H4710       H  0.13306635  0.06066813  0.93971363     0.13200
C4711       C  0.15816909  0.08109179  0.92058968     0.02600
N4712       N  0.13906033  0.10667792  0.89582359    -0.81100
H4713       H  0.10337857  0.10724324  0.89978905     0.18000
C4714       C  0.16788573  0.07007675  0.90783630    -0.26000
C4715       C  0.18723456  0.06748317  0.90927223     0.36100
C4716       C  0.19708480  0.07627126  0.92358318    -0.20000
C4717       C  0.18748922  0.08814187  0.93561015    -0.25200
C4718       C  0.16819131  0.09075125  0.93416795     0.27400
H4719       H  0.16024459  0.06298398  0.89714628     0.13200
N4720       N  0.19683458  0.05552870  0.89661560    -0.82500
H4721       H  0.19495995  0.09462991  0.94680568     0.18000
N4722       N  0.15859750  0.10266439  0.94686816    -0.81100
H4723       H  0.18769630  0.05030467  0.88676631     0.33700
H4724       H  0.20173321  0.04424241  0.90414697     0.38200
H4725       H  0.16788258  0.10856265  0.95618027     0.33600
H4726       H  0.15297929  0.11351218  0.93919062     0.30300
H4727       H  0.14831926  0.11447363  0.90362542     0.33600
H4728       H  0.14667459  0.09830255  0.88682332     0.30300
H4729       H  0.10108906  0.06016680  0.95599276     0.38200
H4730       H  0.09950209  0.04646523  0.93720109     0.33700
C4731       C  0.00753153  0.99047288  0.01808922    -0.20100
C4732       C  0.00171555  0.98281410  0.03543696     0.36200
C4733       C  0.01332161  0.97070768  0.04559500    -0.26000
C4734       C  0.03120832  0.96572091  0.03953658     0.02600
C4735       C  0.03661444  0.97215822  0.02171380     0.27400
C4736       C  0.02434171  0.98315274  0.01092967    -0.25200
N4737       N  0.98381249  0.98687326  0.04295073    -0.82600
H4738       H  0.00810236  0.96512504  0.05852507     0.13200
C4739       C  0.04374099  0.95381323  0.05191144     0.02600
N4740       N  0.05481283  0.96808078  0.01471021    -0.81100
H4741       H  0.02855686  0.98680857  0.99701158     0.18000
C4742       C  0.05458148  0.93935385  0.04456170    -0.26000
C4743       C  0.06654950  0.92847168  0.05571640     0.36100
C4744       C  0.06722464  0.93074749  0.07533347    -0.20000
C4745       C  0.05638293  0.94540784  0.08253026    -0.25200
C4746       C  0.04519469  0.95686090  0.07123569     0.27400
H4747       H  0.05389276  0.93636010  0.02990668     0.13200
N4748       N  0.07813577  0.91510523  0.04683995    -0.82500
H4749       H  0.05700921  0.94881588  0.09706859     0.18000
N4750       N  0.03590133  0.97219367  0.07955651    -0.81100
H4751       H  0.06971221  0.90606409  0.03945220     0.33700
H4752       H  0.08664572  0.92198472  0.03732941     0.38200
H4753       H  0.02721123  0.96716949  0.09003346     0.33600
H4754       H  0.04585620  0.98060623  0.08569111     0.30300
H4755       H  0.05676891  0.97389727  0.00158298     0.33600
H4756       H  0.06434130  0.97443178  0.02346241     0.30300
H4757       H  0.97666401  0.97447497  0.04467470     0.38200
H4758       H  0.98556158  0.99272022  0.05604406     0.33700
C4759       C  0.07793113  0.89761568  0.08729264    -0.20100
C4760       C  0.08951768  0.88564953  0.09792001     0.36200
C4761       C  0.08756297  0.86648214  0.09690969    -0.26000
C4762       C  0.07406718  0.85838616  0.08588296     0.02600
C4763       C  0.06173141  0.86992228  0.07599383     0.27400
C4764       C  0.06368362  0.88921608  0.07696959    -0.25200
N4765       N  0.10373537  0.89291217  0.10956457    -0.82600
H4766       H  0.09693151  0.85778098  0.10469238     0.13200
C4767       C  0.07396542  0.83791645  0.08433426     0.02600
N4768       N  0.04705836  0.86264666  0.06482365    -0.81100
H4769       H  0.05364181  0.89751781  0.06973723     0.18000
C4770       C  0.06132809  0.82743993  0.09477017    -0.26000
C4771       C  0.06047894  0.80812334  0.09284461     0.36100
C4772       C  0.07273694  0.79911914  0.08053468    -0.20000
C4773       C  0.08589856  0.80954649  0.07076049    -0.25200
C4774       C  0.08659800  0.82885556  0.07248976     0.27400
H4775       H  0.05174107  0.83442501  0.10396637     0.13200
N4776       N  0.04653284  0.79768605  0.10248770    -0.82500
H4777       H  0.09488125  0.80269680  0.06087230     0.18000
N4778       N  0.09972237  0.83939890  0.06184909    -0.81100
H4779       H  0.03840714  0.80632437  0.11077310     0.33700
H4780       H  0.05329403  0.78859965  0.11143581     0.38200
H4781       H  0.10804264  0.83071201  0.05381413     0.33600
H4782       H  0.09227766  0.84761115  0.05259741     0.30300
H4783       H  0.04975794  0.86642539  0.05108667     0.33600
H4784       H  0.04673933  0.84829680  0.06515639     0.30300
H4785       H  0.10118227  0.88845995  0.12312787     0.38200
H4786       H  0.11643601  0.88743128  0.10528354     0.33700
C4787       C  0.07756509  0.92338327  0.10943704    -0.20100
C4788       C  0.06081145  0.91789925  0.11844525     0.36200
C4789       C  0.05878607  0.91918687  0.13784560    -0.26000
C4790       C  0.07244653  0.92718041  0.14901007     0.02600
C4791       C  0.08868703  0.93352185  0.14020509     0.27400
C4792       C  0.09148770  0.93066595  0.12110443    -0.25200
N4793       N  0.04588153  0.91029792  0.10799820    -0.82600
H4794       H  0.04630803  0.91376748  0.14418004     0.13200
C4795       C  0.06959445  0.92894649  0.16969390     0.02600
N4796       N  0.10243002  0.94321180  0.15054728    -0.81100
H4797       H  0.10511047  0.93377018  0.11600029     0.18000
C4798       C  0.08401410  0.92451867  0.18206188    -0.26000
C4799       C  0.08241544  0.92772635  0.20131970     0.36100
C4800       C  0.06574021  0.93465272  0.20880873    -0.20000
C4801       C  0.05079746  0.93739315  0.19658833    -0.25200
C4802       C  0.05269328  0.93535128  0.17727527     0.27400
H4803       H  0.09688786  0.91898026  0.17671372     0.13200
N4804       N  0.09807272  0.92465208  0.21295348    -0.82500
H4805       H  0.03760013  0.94198899  0.20204447     0.18000
N4806       N  0.03767075  0.94051748  0.16535526    -0.81100
H4807       H  0.10899050  0.93276595  0.20802851     0.33700
H4808       H  0.10196463  0.91084440  0.21170382     0.38200
H4809       H  0.02622945  0.94492350  0.17308391     0.33600
H4810       H  0.04203603  0.95181647  0.15746275     0.30300
H4811       H  0.11496105  0.93612770  0.14924696     0.33600
H4812       H  0.10410665  0.95623982  0.14457045     0.30300
H4813       H  0.04321560  0.89702955  0.11301595     0.38200
H4814       H  0.03411048  0.91833739  0.11034366     0.33700
C4815       C  0.10108507  0.92371106  0.08120117    -0.20100
C4816       C  0.10914747  0.94139159  0.08316661     0.36200
C4817       C  0.12843108  0.94370484  0.08088468    -0.26000
C4818       C  0.13983246  0.92944270  0.07403301     0.02600
C4819       C  0.13109695  0.91308396  0.06824373     0.27400
C4820       C  0.11215964  0.91037041  0.07198042    -0.25200
N4821       N  0.09799791  0.95687739  0.08837719    -0.82600
H4822       H  0.13442463  0.95671413  0.08492049     0.13200
C4823       C  0.16060420  0.93172188  0.07251514     0.02600
N4824       N  0.14142498  0.89925080  0.05838536    -0.81100
H4825       H  0.10617172  0.89755697  0.06742734     0.18000
C4826       C  0.17251951  0.91693777  0.07707491    -0.26000
C4827       C  0.19187583  0.91782035  0.07398896     0.36100
C4828       C  0.19993501  0.93445109  0.06784217    -0.20000
C4829       C  0.18811127  0.94973141  0.06512440    -0.25200
C4830       C  0.16874642  0.94828433  0.06622928     0.27400
H4831       H  0.16663985  0.90432140  0.08251249     0.13200
N4832       N  0.20310703  0.90169747  0.07645300    -0.82500
H4833       H  0.19390893  0.96294061  0.06130757     0.18000
N4834       N  0.15741718  0.96341516  0.06019418    -0.81100
H4835       H  0.19505555  0.89060741  0.08101324     0.33700
H4836       H  0.20834430  0.89804134  0.06344351     0.38200
H4837       H  0.16555880  0.97454987  0.05591101     0.33600
H4838       H  0.15011919  0.95905097  0.04854382     0.30300
H4839       H  0.13307088  0.88798126  0.05518015     0.33600
H4840       H  0.14568970  0.90501408  0.04577372     0.30300
H4841       H  0.09908165  0.96672751  0.07784809     0.38200
H4842       H  0.10346325  0.96266192  0.10040791     0.33700
C4843       C  0.92124254  0.93463039  0.93687197    -0.20100
C4844       C  0.93862115  0.92814012  0.94384730     0.36200
C4845       C  0.95036887  0.93973074  0.95434620    -0.26000
C4846       C  0.94588430  0.95809687  0.95832103     0.02600
C4847       C  0.92912722  0.96505773  0.95081316     0.27400
C4848       C  0.91767844  0.95362555  0.93979405    -0.25200
N4849       N  0.94499975  0.90988091  0.93999668    -0.82600
H4850       H  0.96325348  0.93417518  0.95956096     0.13200
C4851       C  0.95862648  0.96933147  0.97070201     0.02600
N4852       N  0.92329847  0.98374861  0.95378937    -0.81100
H4853       H  0.90564137  0.95985007  0.93353058     0.18000
C4854       C  0.97571428  0.97585469  0.96388604    -0.26000
C4855       C  0.98792275  0.98659102  0.97488646     0.36100
C4856       C  0.98298886  0.99189806  0.99334777    -0.20000
C4857       C  0.96669677  0.98350240  0.00048359    -0.25200
C4858       C  0.95439688  0.97302972  0.98953769     0.27400
H4859       H  0.97974121  0.97249519  0.94981210     0.13200
N4860       N  0.00557287  0.99144768  0.96722156    -0.82500
H4861       H  0.96286211  0.98561640  0.01478479     0.18000
N4862       N  0.93783248  0.96621050  0.99828364    -0.81100
H4863       H  0.00338210  0.99883181  0.95497432     0.33700
H4864       H  0.01257377  0.97931015  0.96381662     0.38200
H4865       H  0.92969922  0.97759221  0.00182949     0.33600
H4866       H  0.92997130  0.95816501  0.98934637     0.30300
H4867       H  0.91103599  0.98333198  0.96154666     0.33600
H4868       H  0.93286916  0.99110533  0.96158721     0.30300
H4869       H  0.95776454  0.91080807  0.93316134     0.38200
H4870       H  0.94712196  0.90312201  0.95261028     0.33700
C4871       C  0.91468787  0.92853533  0.90345907    -0.20100
C4872       C  0.90495705  0.94123856  0.89205483     0.36200
C4873       C  0.90882428  0.94226253  0.87293931    -0.26000
C4874       C  0.92244605  0.93118738  0.86459073     0.02600
C4875       C  0.93431034  0.92105519  0.87642659     0.27400
C4876       C  0.93107028  0.92107822  0.89575085    -0.25200
N4877       N  0.89137058  0.95345103  0.89969633    -0.82600
H4878       H  0.90082780  0.95166612  0.86449736     0.13200
C4879       C  0.92423698  0.93096104  0.84371359     0.02600
N4880       N  0.94900361  0.90997151  0.86887367    -0.81100
H4881       H  0.94014071  0.91307002  0.90444939     0.18000
C4882       C  0.94174975  0.93236261  0.83530038    -0.26000
C4883       C  0.94386798  0.93304014  0.81591618     0.36100
C4884       C  0.92804513  0.93390135  0.80437994    -0.20000
C4885       C  0.91055411  0.93170809  0.81259874    -0.25200
C4886       C  0.90850528  0.92984878  0.83203854     0.27400
H4887       H  0.95394736  0.93339634  0.84384419     0.13200
N4888       N  0.96214009  0.93310535  0.80789385    -0.82500
H4889       H  0.89838819  0.93206866  0.80391661     0.18000
N4890       N  0.89043539  0.92704471  0.83996935    -0.81100
H4891       H  0.97224692  0.93238943  0.81817422     0.33700
H4892       H  0.96349391  0.92117921  0.79992713     0.38200
H4893       H  0.88038335  0.92665151  0.82962922     0.33600
H4894       H  0.89040649  0.91409599  0.84633186     0.30300
H4895       H  0.95639535  0.90342876  0.87942209     0.33600
H4896       H  0.94294691  0.89956288  0.86099581     0.30300
H4897       H  0.87889965  0.95134144  0.89274919     0.38200
H4898       H  0.89563989  0.96695854  0.89707098     0.33700
C4899       C  0.90999036  0.90148551  0.92750207    -0.20100
C4900       C  0.90603095  0.89422626  0.94540103     0.36200
C4901       C  0.90590184  0.87506331  0.94858783    -0.26000
C4902       C  0.91075433  0.86234545  0.93467911     0.02600
C4903       C  0.91454527  0.86929305  0.91678279     0.27400
C4904       C  0.91324416  0.88833921  0.91330213    -0.25200
N4905       N  0.90204269  0.90631263  0.96054843    -0.82600
H4906       H  0.90217330  0.87014536  0.96228040     0.13200
C4907       C  0.91255849  0.84208162  0.93925206     0.02600
N4908       N  0.91991167  0.85705152  0.90206866    -0.81100
H4909       H  0.91422249  0.89244422  0.89902112     0.18000
C4910       C  0.90580216  0.82838122  0.92718144    -0.26000
C4911       C  0.90912358  0.80941415  0.93034366     0.36100
C4912       C  0.91808367  0.80357652  0.94669950    -0.20000
C4913       C  0.92315644  0.81735784  0.95950691    -0.25200
C4914       C  0.92163297  0.83624078  0.95551224     0.27400
H4915       H  0.89834059  0.83237433  0.91484794     0.13200
N4916       N  0.90391941  0.79637902  0.91651528    -0.82500
H4917       H  0.92899880  0.81356991  0.97271601     0.18000
N4918       N  0.92998850  0.84946002  0.96768536    -0.81100
H4919       H  0.91064702  0.79989366  0.90414420     0.33700
H4920       H  0.88966658  0.79755450  0.91441548     0.38200
H4921       H  0.93623950  0.84295464  0.97896871     0.33600
H4922       H  0.94059345  0.85601670  0.96029188     0.30300
H4923       H  0.92205837  0.86425739  0.88968678     0.33600
H4924       H  0.93265965  0.85126637  0.90562408     0.30300
H4925       H  0.91172261  0.90382339  0.97096799     0.38200
H4926       H  0.88893326  0.90302092  0.96577772     0.33700
C4927       C  0.88660799  0.92562577  0.92573681    -0.20100
C4928       C  0.87420665  0.91689930  0.91305164     0.36200
C4929       C  0.85491202  0.91797763  0.91540140    -0.26000
C4930       C  0.84688067  0.92779767  0.92993271     0.02600
C4931       C  0.85872373  0.93650604  0.94270954     0.27400
C4932       C  0.87822373  0.93508603  0.94077018    -0.25200
N4933       N  0.88107080  0.90693433  0.89736770    -0.82600
H4934       H  0.84604849  0.91124286  0.90543643     0.13200
C4935       C  0.82610325  0.92886933  0.93114475     0.02600
N4936       N  0.85100855  0.94647325  0.95800136    -0.81100
H4937       H  0.88657892  0.94094212  0.95159491     0.18000
C4938       C  0.81539690  0.91270288  0.93296674    -0.26000
C4939       C  0.79578470  0.91337897  0.93421432     0.36100
C4940       C  0.78664019  0.93053744  0.93343377    -0.20000
C4941       C  0.79736412  0.94647996  0.93044166    -0.25200
C4942       C  0.81679469  0.94579329  0.92932530     0.27400
H4943       H  0.82241329  0.89955387  0.93391160     0.13200
N4944       N  0.78527026  0.89686947  0.93727259    -0.82500
H4945       H  0.79058958  0.95978875  0.92986387     0.18000
N4946       N  0.82705015  0.96239502  0.92630612    -0.81100
H4947       H  0.77691116  0.89491291  0.92567688     0.33700
H4948       H  0.79406024  0.88545711  0.93797762     0.38200
H4949       H  0.82257547  0.96827070  0.91387846     0.33600
H4950       H  0.82383269  0.97152790  0.93702552     0.30300
H4951       H  0.85595507  0.94058248  0.97023572     0.33600
H4952       H  0.85589703  0.96000316  0.95727671     0.30300
H4953       H  0.87570674  0.91296193  0.88537374     0.38200
H4954       H  0.87608823  0.89344424  0.89818974     0.33700
C4955       C  0.92822865  0.07935431  0.07866168    -0.20100
C4956       C  0.93743818  0.08539148  0.06205305     0.36200
C4957       C  0.94870709  0.07320624  0.05156437    -0.26000
C4958       C  0.95076991  0.05455464  0.05617114     0.02600
C4959       C  0.94085726  0.04800744  0.07189617     0.27400
C4960       C  0.92963014  0.06020465  0.08246458    -0.25200
N4961       N  0.93453977  0.10344715  0.05465246    -0.82600
H4962       H  0.95543473  0.07832001  0.03911997     0.13200
C4963       C  0.96180966  0.04205941  0.04330252     0.02600
N4964       N  0.94182937  0.02908267  0.07768768    -0.81100
H4965       H  0.92215903  0.05465180  0.09427222     0.18000
C4966       C  0.98073340  0.03884899  0.04646427    -0.26000
C4967       C  0.99155361  0.02733204  0.03473906     0.36100
C4968       C  0.98349570  0.01786262  0.01946559    -0.20000
C4969       C  0.96468915  0.02224565  0.01586407    -0.25200
C4970       C  0.95388890  0.03376263  0.02745539     0.27400
H4971       H  0.98728554  0.04546455  0.05814721     0.13200
N4972       N  0.01085475  0.02528120  0.03857439    -0.82500
H4973       H  0.95801953  0.01710266  0.00359130     0.18000
N4974       N  0.93494064  0.03690767  0.02234279    -0.81100
H4975       H  0.01222686  0.02018385  0.05205222     0.33700
H4976       H  0.01696178  0.03831431  0.03804785     0.38200
H4977       H  0.92805982  0.02427646  0.02313165     0.33600
H4978       H  0.92817762  0.04572429  0.03153996     0.30300
H4979       H  0.92864036  0.02339906  0.07617894     0.33600
H4980       H  0.95074856  0.02143503  0.06928689     0.30300
H4981       H  0.92864974  0.10213501  0.04152764     0.38200
H4982       H  0.94742537  0.10977664  0.05296493     0.33700
C4983       C  0.79615937  0.06742488  0.08719358    -0.20100
C4984       C  0.80781647  0.05476052  0.09633723     0.36200
C4985       C  0.82706116  0.05784960  0.09689378    -0.26000
C4986       C  0.83515536  0.07350855  0.08868985     0.02600
C4987       C  0.82334216  0.08661370  0.08020545     0.27400
C4988       C  0.80402545  0.08338361  0.07948443    -0.25200
N4989       N  0.80008517  0.03824569  0.10418770    -0.82600
H4990       H  0.83587865  0.04755900  0.10318912     0.13200
C4991       C  0.85591944  0.07580908  0.08899147     0.02600
N4992       N  0.83102927  0.10296567  0.07199018    -0.81100
H4993       H  0.79519813  0.09285317  0.07199080     0.18000
C4994       C  0.86591532  0.07960691  0.07261537    -0.26000
C4995       C  0.88517769  0.08318511  0.07285515     0.36100
C4996       C  0.89500982  0.08340330  0.08987472    -0.20000
C4997       C  0.88528845  0.07633523  0.10550434    -0.25200
C4998       C  0.86602656  0.07367764  0.10547997     0.27400
H4999       H  0.85867053  0.08019844  0.05953480     0.13200
N5000       N  0.89445625  0.08757205  0.05585175    -0.82500
H5001       H  0.89226171  0.07350439  0.11838585     0.18000
N5002       N  0.85671797  0.06958471  0.12257813    -0.81100
H5003       H  0.88787040  0.09892889  0.04988403     0.33700
H5004       H  0.89296810  0.07639715  0.04688891     0.38200
H5005       H  0.86231518  0.05742904  0.12794513     0.33600
H5006       H  0.85950210  0.08020520  0.13190608     0.30300
H5007       H  0.82059853  0.11106277  0.06615195     0.33600
H5008       H  0.83688395  0.11073971  0.08261082     0.30300
H5009       H  0.79115850  0.04217118  0.11491482     0.38200
H5010       H  0.81043025  0.03017528  0.11020053     0.33700
C5011       C  0.93066878  0.08804822  0.21168741    -0.20100
C5012       C  0.93161973  0.10579040  0.20372820     0.36200
C5013       C  0.92941206  0.10787755  0.18432667    -0.26000
C5014       C  0.92643215  0.09250184  0.17283964     0.02600
C5015       C  0.92411397  0.07505587  0.18108155     0.27400
C5016       C  0.92631116  0.07301774  0.20029497    -0.25200
N5017       N  0.93542500  0.12144835  0.21520893    -0.82600
H5018       H  0.93071806  0.12138565  0.17806418     0.13200
C5019       C  0.92557487  0.09440034  0.15221779     0.02600
N5020       N  0.91985762  0.05936599  0.16978165    -0.81100
H5021       H  0.92553230  0.05938178  0.20637881     0.18000
C5022       C  0.93815893  0.08476731  0.14090265    -0.26000
C5023       C  0.93619895  0.08403254  0.12143063     0.36100
C5024       C  0.92062915  0.09245108  0.11278997    -0.20000
C5025       C  0.90916323  0.10347660  0.12449978    -0.25200
C5026       C  0.91136166  0.10434131  0.14374873     0.27400
H5027       H  0.94963673  0.07760631  0.14729848     0.13200
N5028       N  0.95055335  0.07538153  0.11088294    -0.82500
H5029       H  0.89753298  0.11085445  0.11869182     0.18000
N5030       N  0.89851297  0.11470450  0.15473190    -0.81100
H5031       H  0.96298705  0.08216911  0.11360120     0.33700
H5032       H  0.95186662  0.06179376  0.11552488     0.38200
H5033       H  0.89890176  0.12837376  0.15017444     0.33600
H5034       H  0.88523677  0.10958147  0.15228797     0.30300
H5035       H  0.91873766  0.04748120  0.17790637     0.33600
H5036       H  0.90683213  0.06160908  0.16396086     0.30300
H5037       H  0.94874687  0.11986784  0.22054454     0.38200
H5038       H  0.93555391  0.13350367  0.20726308     0.33700
C5039       C  0.91554658  0.11293480  0.08639261    -0.20100
C5040       C  0.93187621  0.12361952  0.08919128     0.36200
C5041       C  0.93125625  0.14303458  0.08877914    -0.26000
C5042       C  0.91470107  0.15257886  0.08561732     0.02600
C5043       C  0.89860006  0.14232633  0.08223532     0.27400
C5044       C  0.89906953  0.12297421  0.08275221    -0.25200
N5045       N  0.94910502  0.11477692  0.09327337    -0.82600
H5046       H  0.94385962  0.15072723  0.09113082     0.13200
C5047       C  0.91447834  0.17323561  0.08535114     0.02600
N5048       N  0.88137812  0.15156531  0.07909236    -0.81100
H5049       H  0.88587459  0.11627205  0.08156123     0.18000
C5050       C  0.90858871  0.18236713  0.06931688    -0.26000
C5051       C  0.90928641  0.20160565  0.06776098     0.36100
C5052       C  0.91678730  0.21227223  0.08240578    -0.20000
C5053       C  0.92164380  0.20327767  0.09893298    -0.25200
C5054       C  0.92036989  0.18387540  0.10062240     0.27400
H5055       H  0.90379082  0.17441643  0.05760731     0.13200
N5056       N  0.90294354  0.20976134  0.05075735    -0.82500
H5057       H  0.92742175  0.21127586  0.11014556     0.18000
N5058       N  0.92540178  0.17489739  0.11762235    -0.81100
H5059       H  0.88907099  0.20606595  0.04914313     0.33700
H5060       H  0.90294723  0.22408232  0.05152886     0.38200
H5061       H  0.92941323  0.18459277  0.12748428     0.33600
H5062       H  0.91354192  0.16844927  0.12288122     0.30300
H5063       H  0.87632114  0.14731396  0.06625680     0.33600
H5064       H  0.87198235  0.14733370  0.08931329     0.30300
H5065       H  0.95352346  0.11937380  0.10622892     0.38200
H5066       H  0.95889420  0.11900971  0.08344203     0.33700
C5067       C  0.42303884  0.42589663  0.43603216    -0.20100
C5068       C  0.43186655  0.42014249  0.45285653     0.36200
C5069       C  0.44303518  0.43248749  0.46312252    -0.26000
C5070       C  0.44555409  0.45090824  0.45784037     0.02600
C5071       C  0.43651620  0.45704240  0.44167065     0.27400
C5072       C  0.42519168  0.44479462  0.43138713    -0.25200
N5073       N  0.42893105  0.40218059  0.46051289    -0.82600
H5074       H  0.44939868  0.42769027  0.47580755     0.13200
C5075       C  0.45657882  0.46383848  0.47008381     0.02600
N5076       N  0.43901449  0.47572535  0.43558218    -0.81100
H5077       H  0.41817128  0.45001587  0.41924818     0.18000
C5078       C  0.47595462  0.46471583  0.46840639    -0.26000
C5079       C  0.48684455  0.47640041  0.47973556     0.36100
C5080       C  0.47859589  0.48756262  0.49383530    -0.20000
C5081       C  0.45894741  0.48686280  0.49489678    -0.25200
C5082       C  0.44806895  0.47531842  0.48353385     0.27400
H5083       H  0.48278651  0.45624825  0.45809344     0.13200
N5084       N  0.50647218  0.47675996  0.47686975    -0.82500
H5085       H  0.45146596  0.49545076  0.50452146     0.18000
N5086       N  0.42834158  0.47559813  0.48630975    -0.81100
H5087       H  0.50902192  0.48092592  0.46321951     0.33700
H5088       H  0.51154427  0.46336350  0.47840881     0.38200
H5089       H  0.42363480  0.48875148  0.48276321     0.33600
H5090       H  0.42155187  0.46636561  0.47765570     0.30300
H5091       H  0.43186998  0.47807734  0.42324336     0.33600
H5092       H  0.43306176  0.48433820  0.44553701     0.30300
H5093       H  0.42335445  0.40364398  0.47382617     0.38200
H5094       H  0.44181384  0.39576189  0.46184351     0.33700
C5095       C  0.41386093  0.41450885  0.40209621    -0.20100
C5096       C  0.43048031  0.42089238  0.39346414     0.36200
C5097       C  0.43187122  0.42177125  0.37386938    -0.26000
C5098       C  0.41747419  0.41566221  0.36241356     0.02600
C5099       C  0.40189634  0.40753957  0.37078532     0.27400
C5100       C  0.40051925  0.40666377  0.39007552    -0.25200
N5101       N  0.44644175  0.42541168  0.40415022    -0.82600
H5102       H  0.44438448  0.42716852  0.36755628     0.13200
C5103       C  0.41879266  0.41760923  0.34181280     0.02600
N5104       N  0.38723405  0.39983003  0.36001736    -0.81100
H5105       H  0.38816511  0.40047762  0.39573050     0.18000
C5106       C  0.43065426  0.40613474  0.33151206    -0.26000
C5107       C  0.43250576  0.40817883  0.31208319     0.36100
C5108       C  0.42193914  0.42164144  0.30274918    -0.20000
C5109       C  0.40964457  0.43262926  0.31302817    -0.25200
C5110       C  0.40813574  0.43086198  0.33237313     0.27400
H5111       H  0.43882743  0.39590052  0.33872253     0.13200
N5112       N  0.44557633  0.39715456  0.30191848    -0.82500
H5113       H  0.40201051  0.44347406  0.30610553     0.18000
N5114       N  0.39634533  0.44313094  0.34251739    -0.81100
H5115       H  0.45220605  0.38787669  0.31076372     0.33700
H5116       H  0.45583966  0.40592620  0.29671213     0.38200
H5117       H  0.40071877  0.45659851  0.33984057     0.33600
H5118       H  0.38290978  0.44176240  0.33741796     0.30300
H5119       H  0.38130985  0.41021441  0.35197405     0.33600
H5120       H  0.39286156  0.38989678  0.35117324     0.30300
H5121       H  0.45722072  0.41665047  0.40013883     0.38200
H5122       H  0.45035880  0.43888365  0.40084713     0.33700
C5123       C  0.41108509  0.39225386  0.42729356    -0.20100
C5124       C  0.39577798  0.37967545  0.42802330     0.36200
C5125       C  0.39880906  0.36056080  0.42926215    -0.26000
C5126       C  0.41654626  0.35292412  0.42874283     0.02600
C5127       C  0.43187758  0.36497548  0.42735315     0.27400
C5128       C  0.42890216  0.38411724  0.42608802    -0.25200
N5129       N  0.37700779  0.38563259  0.42604792    -0.82600
H5130       H  0.38695682  0.35143232  0.42983388     0.13200
C5131       C  0.41837630  0.33236498  0.42918159     0.02600
N5132       N  0.45067077  0.35843354  0.42726242    -0.81100
H5133       H  0.44088600  0.39290412  0.42437271     0.18000
C5134       C  0.42458008  0.32279474  0.41337796    -0.26000
C5135       C  0.42707348  0.30346304  0.41365827     0.36100
C5136       C  0.42316404  0.29349617  0.43000256    -0.20000
C5137       C  0.41603367  0.30299073  0.44544287    -0.25200
C5138       C  0.41365086  0.32224875  0.44522945     0.27400
H5139       H  0.42792938  0.33052176  0.40094981     0.13200
N5140       N  0.43456483  0.29408477  0.39780646    -0.82500
H5141       H  0.41328751  0.29539983  0.45811000     0.18000
N5142       N  0.40702213  0.33165915  0.46146213    -0.81100
H5143       H  0.43709733  0.30341021  0.38703033     0.33700
H5144       H  0.42445162  0.28499358  0.39306908     0.38200
H5145       H  0.40413445  0.32226776  0.47208776     0.33600
H5146       H  0.41771938  0.34007437  0.46620098     0.30300
H5147       H  0.45722989  0.36402742  0.43882273     0.33600
H5148       H  0.45134827  0.34418158  0.42891338     0.30300
H5149       H  0.37140012  0.37924301  0.41439663     0.38200
H5150       H  0.36949286  0.38107981  0.43760122     0.33700
C5151       C  0.38970258  0.42175919  0.42766064    -0.20100
C5152       C  0.38020826  0.41892025  0.44475934     0.36200
C5153       C  0.36111260  0.42301512  0.44638904    -0.26000
C5154       C  0.35117696  0.43076941  0.43159951     0.02600
C5155       C  0.36115797  0.43611729  0.41566441     0.27400
C5156       C  0.38019428  0.43239554  0.41423543    -0.25200
N5157       N  0.38953819  0.41084678  0.46018126    -0.82600
H5158       H  0.35395579  0.41983767  0.45923205     0.13200
C5159       C  0.33065792  0.43405266  0.43320337     0.02600
N5160       N  0.35190454  0.44480649  0.40047862    -0.81100
H5161       H  0.38725213  0.43740793  0.40198365     0.18000
C5162       C  0.32364723  0.45179590  0.43000513    -0.26000
C5163       C  0.30464509  0.45570812  0.43170550     0.36100
C5164       C  0.29218258  0.44179040  0.43748973    -0.20000
C5165       C  0.29894491  0.42382665  0.43998341    -0.25200
C5166       C  0.31802986  0.41977671  0.43771215     0.27400
H5167       H  0.33312858  0.46281694  0.42648446     0.13200
N5168       N  0.29792950  0.47398588  0.42800292    -0.82500
H5169       H  0.28946867  0.41311807  0.44442076     0.18000
N5170       N  0.32465639  0.40127483  0.44011601    -0.81100
H5171       H  0.30876585  0.48265252  0.42393411     0.33700
H5172       H  0.28891873  0.47315742  0.41676070     0.38200
H5173       H  0.31370299  0.39242310  0.44337254     0.33600
H5174       H  0.33001910  0.39690182  0.42738187     0.30300
H5175       H  0.35822272  0.45753382  0.39804041     0.33600
H5176       H  0.35385667  0.43665746  0.38870925     0.30300
H5177       H  0.38865354  0.42003046  0.47127504     0.38200
H5178       H  0.38258276  0.39879977  0.46400175     0.33700
C5179       C  0.50334341  0.51326886  0.49342221    -0.20100
C5180       C  0.49640256  0.52257171  0.47726525     0.36200
C5181       C  0.50788342  0.53485555  0.46692337    -0.26000
C5182       C  0.52645181  0.53812050  0.47155447     0.02600
C5183       C  0.53371023  0.52824613  0.48672974     0.27400
C5184       C  0.52256916  0.51575772  0.49680283    -0.25200
N5185       N  0.47787545  0.51922749  0.47088409    -0.82600
H5186       H  0.50223642  0.54202027  0.45505104     0.13200
C5187       C  0.53791718  0.55207406  0.46073148     0.02600
N5188       N  0.55235847  0.53103492  0.49272680    -0.81100
H5189       H  0.52954681  0.50818964  0.50749566     0.18000
C5190       C  0.53382973  0.57087568  0.46248496    -0.26000
C5191       C  0.54410568  0.58472859  0.45312131     0.36100
C5192       C  0.55998873  0.58014920  0.44200926    -0.20000
C5193       C  0.56313253  0.56100799  0.43950335    -0.25200
C5194       C  0.55258927  0.54716517  0.44853301     0.27400
H5195       H  0.52220684  0.57493974  0.47111092     0.13200
N5196       N  0.53745135  0.60323984  0.45444442    -0.82500
H5197       H  0.57408643  0.55664750  0.43018779     0.18000
N5198       N  0.55682930  0.52829680  0.44429078    -0.81100
H5199       H  0.53704922  0.60693146  0.46843000     0.33700
H5200       H  0.52391667  0.60362703  0.44941940     0.38200
H5201       H  0.57015756  0.52554102  0.44910329     0.33600
H5202       H  0.54784450  0.51919786  0.45101406     0.30300
H5203       H  0.56139207  0.52749442  0.48198241     0.33600
H5204       H  0.55410797  0.54499845  0.49569882     0.30300
H5205       H  0.46848664  0.52455217  0.48049286     0.38200
H5206       H  0.47539852  0.52614010  0.45842235     0.33700
C5207       C  0.56915386  0.58932033  0.40949364    -0.20100
C5208       C  0.55138695  0.59023492  0.40110217     0.36200
C5209       C  0.54947693  0.58799812  0.38177053    -0.26000
C5210       C  0.56480311  0.58428662  0.37034645     0.02600
C5211       C  0.58215122  0.58139654  0.37867909     0.27400
C5212       C  0.58378746  0.58285529  0.39792398    -0.25200
N5213       N  0.53523430  0.59391271  0.41205818    -0.82600
H5214       H  0.53588470  0.58922593  0.37563096     0.13200
C5215       C  0.56211796  0.58156780  0.35009309     0.02600
N5216       N  0.59860120  0.57729279  0.36811616    -0.81100
H5217       H  0.59711840  0.57917150  0.40343085     0.18000
C5218       C  0.56147523  0.59676984  0.33797887    -0.26000
C5219       C  0.55878233  0.59433938  0.31876529     0.36100
C5220       C  0.55687347  0.57648559  0.31152498    -0.20000
C5221       C  0.55841521  0.56133042  0.32364907    -0.25200
C5222       C  0.56077052  0.56367037  0.34279204     0.27400
H5223       H  0.56274855  0.61055883  0.34350415     0.13200
N5224       N  0.55720032  0.61000280  0.30681654    -0.82500
H5225       H  0.55710511  0.54751365  0.31819007     0.18000
N5226       N  0.56111598  0.54795452  0.35495010    -0.81100
H5227       H  0.56938054  0.61766625  0.30786497     0.33700
H5228       H  0.54626366  0.61814381  0.31164202     0.38200
H5229       H  0.55915571  0.53580771  0.34747846     0.33600
H5230       H  0.57432641  0.54707462  0.36066871     0.30300
H5231       H  0.60295370  0.56404754  0.37174439     0.33600
H5232       H  0.59620480  0.57726959  0.35388198     0.30300
H5233       H  0.52613722  0.58284825  0.41054503     0.38200
H5234       H  0.52875200  0.60566623  0.40678458     0.33700
C5235       C  0.56782498  0.61522097  0.43516591    -0.20100
C5236       C  0.57238045  0.62352530  0.45265463     0.36200
C5237       C  0.57083620  0.64267282  0.45515907    -0.26000
C5238       C  0.56512875  0.65439647  0.44088923     0.02600
C5239       C  0.55932679  0.64651492  0.42406224     0.27400
C5240       C  0.56094994  0.62743227  0.42137921    -0.25200
N5241       N  0.57979422  0.61335186  0.46796548    -0.82600
H5242       H  0.57519848  0.64860134  0.46818589     0.13200
C5243       C  0.56703391  0.67476301  0.44320780     0.02600
N5244       N  0.55219126  0.65745803  0.40905834    -0.81100
H5245       H  0.55792897  0.62282953  0.40761189     0.18000
C5246       C  0.58115879  0.68405683  0.43355187    -0.26000
C5247       C  0.58322083  0.70332262  0.43481088     0.36100
C5248       C  0.57094107  0.71358926  0.44607447    -0.20000
C5249       C  0.55683045  0.70424875  0.45576908    -0.25200
C5250       C  0.55482031  0.68494967  0.45452288     0.27400
H5251       H  0.59049294  0.67620802  0.42481241     0.13200
N5252       N  0.59747042  0.71252082  0.42435381    -0.82500
H5253       H  0.54740094  0.71204563  0.46445130     0.18000
N5254       N  0.54039938  0.67565169  0.46462787    -0.81100
H5255       H  0.60533266  0.70302675  0.41680821     0.33700
H5256       H  0.59098927  0.72106380  0.41467880     0.38200
H5257       H  0.53264795  0.68506200  0.47239723     0.33600
H5258       H  0.53138218  0.66990884  0.45496413     0.30300
H5259       H  0.53870390  0.65296499  0.40649978     0.33600
H5260       H  0.55102886  0.67131108  0.41264291     0.30300
H5261       H  0.57190943  0.60149857  0.47057510     0.38200
H5262       H  0.59344896  0.60990267  0.46533305     0.33700
C5263       C  0.69237978  0.57855766  0.43625142    -0.20100
C5264       C  0.68419795  0.59249149  0.44712564     0.36200
C5265       C  0.66483353  0.59480991  0.44705982    -0.26000
C5266       C  0.65341875  0.58314805  0.43671971     0.02600
C5267       C  0.66155999  0.56949761  0.42544811     0.27400
C5268       C  0.68096064  0.56738117  0.42529164    -0.25200
N5269       N  0.69551643  0.60348585  0.45904820    -0.82600
H5270       H  0.65853174  0.60545248  0.45548931     0.13200
C5271       C  0.63304431  0.58624199  0.43693572     0.02600
N5272       N  0.65009017  0.55774809  0.41438268    -0.81100
H5273       H  0.68715610  0.55620945  0.41749235     0.18000
C5274       C  0.62620778  0.60047368  0.42603867    -0.26000
C5275       C  0.60733236  0.60442222  0.42517092     0.36100
C5276       C  0.59396550  0.59278738  0.43445982    -0.20000
C5277       C  0.60134369  0.57935948  0.44668156    -0.25200
C5278       C  0.62053261  0.57604088  0.44807833     0.27400
H5279       H  0.63581131  0.60890785  0.41813730     0.13200
N5280       N  0.60259148  0.62029948  0.41435368    -0.82500
H5281       H  0.59238618  0.57144767  0.45565660     0.18000
N5282       N  0.62673260  0.56251244  0.46123150    -0.81100
H5283       H  0.59773238  0.63074846  0.42308011     0.33700
H5284       H  0.59308039  0.61715091  0.40414915     0.38200
H5285       H  0.62171976  0.54972069  0.45699724     0.33600
H5286       H  0.64114178  0.56151644  0.46142079     0.30300
H5287       H  0.65822881  0.54854776  0.40674969     0.33600
H5288       H  0.64202427  0.54978832  0.42340487     0.30300
H5289       H  0.70406718  0.61146724  0.45054025     0.38200
H5290       H  0.68735789  0.61268896  0.46665099     0.33700
C5291       C  0.56277392  0.43479918  0.58236438    -0.20100
C5292       C  0.54324110  0.43220566  0.58187336     0.36200
C5293       C  0.53184524  0.44322715  0.57032995    -0.26000
C5294       C  0.53912147  0.45708465  0.55869365     0.02600
C5295       C  0.55846326  0.46037859  0.55964581     0.27400
C5296       C  0.56962200  0.44987729  0.57178021    -0.25200
N5297       N  0.53475192  0.41830827  0.59315289    -0.82600
H5298       H  0.51707561  0.44068446  0.57023731     0.13200
C5299       C  0.52634217  0.46767961  0.54575258     0.02600
N5300       N  0.56754712  0.47403260  0.54833716    -0.81100
H5301       H  0.58398731  0.45379529  0.57255900     0.18000
C5302       C  0.52383712  0.48676688  0.54801569    -0.26000
C5303       C  0.51270440  0.49739225  0.53586682     0.36100
C5304       C  0.50303262  0.48906976  0.52080399    -0.20000
C5305       C  0.50455089  0.46957974  0.51977062    -0.25200
C5306       C  0.51646877  0.45910688  0.53119150     0.27400
H5307       H  0.53094488  0.49365300  0.55920563     0.13200
N5308       N  0.51146690  0.51684620  0.53887522    -0.82500
H5309       H  0.49666247  0.46186625  0.50987782     0.18000
N5310       N  0.51832553  0.43979118  0.52717360    -0.81100
H5311       H  0.52483584  0.52232866  0.53848842     0.33700
H5312       H  0.50605688  0.51899697  0.55215657     0.38200
H5313       H  0.52338385  0.43864951  0.51361921     0.33600
H5314       H  0.52818627  0.43344210  0.53550170     0.30300
H5315       H  0.57727226  0.46721236  0.54005851     0.33600
H5316       H  0.55846089  0.48038405  0.53915956     0.30300
H5317       H  0.52747813  0.40938707  0.58450314     0.38200
H5318       H  0.52520471  0.42472230  0.60195856     0.33700
C5319       C  0.57639778  0.40140528  0.58928685    -0.20100
C5320       C  0.58813886  0.38865828  0.59888476     0.36200
C5321       C  0.58798337  0.36985081  0.59462666    -0.26000
C5322       C  0.57656377  0.36281657  0.58090746     0.02600
C5323       C  0.56572366  0.37520415  0.57032476     0.27400
C5324       C  0.56592208  0.39419453  0.57447731    -0.25200
N5325       N  0.59982543  0.39456298  0.61368297    -0.82600
H5326       H  0.59650674  0.36050596  0.60263304     0.13200
C5327       C  0.57542336  0.34242361  0.57892499     0.02600
N5328       N  0.55427917  0.36906326  0.55533034    -0.81100
H5329       H  0.55774491  0.40317218  0.56584694     0.18000
C5330       C  0.56054969  0.33309441  0.58722819    -0.26000
C5331       C  0.55845452  0.31394662  0.58520452     0.36100
C5332       C  0.57139215  0.30393282  0.57453300    -0.20000
C5333       C  0.58688853  0.31304716  0.56714013    -0.25200
C5334       C  0.58910549  0.33224184  0.56935868     0.27400
H5335       H  0.55034786  0.34087331  0.59500689     0.13200
N5336       N  0.54279764  0.30465735  0.59327108    -0.82500
H5337       H  0.59671807  0.30535549  0.55881401     0.18000
N5338       N  0.60492014  0.34150048  0.56160108    -0.81100
H5339       H  0.53448789  0.31393656  0.60060591     0.33700
H5340       H  0.54784392  0.29519296  0.60294810     0.38200
H5341       H  0.61372772  0.33206730  0.55508970     0.33600
H5342       H  0.60017400  0.35044054  0.55129492     0.30300
H5343       H  0.55925235  0.37524657  0.54319381     0.33600
H5344       H  0.55538554  0.35488516  0.55331044     0.30300
H5345       H  0.59626552  0.38720458  0.62564979     0.38200
H5346       H  0.61349306  0.39124577  0.61021454     0.33700
C5347       C  0.56860625  0.42417726  0.61554380    -0.20100
C5348       C  0.56840688  0.44123815  0.62511951     0.36200
C5349       C  0.56646303  0.44160972  0.64462769    -0.26000
C5350       C  0.56425073  0.42529791  0.65500737     0.02600
C5351       C  0.56143370  0.40878911  0.64524329     0.27400
C5352       C  0.56253543  0.40862408  0.62582791    -0.25200
N5353       N  0.57149249  0.45810081  0.61527476    -0.82600
H5354       H  0.56750410  0.45466811  0.65175383     0.13200
C5355       C  0.56569931  0.42546277  0.67582657     0.02600
N5356       N  0.55852931  0.39180545  0.65496073    -0.81100
H5357       H  0.55965270  0.39567124  0.61914904     0.18000
C5358       C  0.55240974  0.41637298  0.68681210    -0.26000
C5359       C  0.55417301  0.41498894  0.70620943     0.36100
C5360       C  0.56886744  0.42400050  0.71541490    -0.20000
C5361       C  0.58203034  0.43334244  0.70433073    -0.25200
C5362       C  0.58092316  0.43369141  0.68479611     0.27400
H5363       H  0.54065527  0.40989214  0.68027066     0.13200
N5364       N  0.54133470  0.40369881  0.71622701    -0.82500
H5365       H  0.59334862  0.44053183  0.71083199     0.18000
N5366       N  0.59544183  0.44211336  0.67402668    -0.81100
H5367       H  0.52800755  0.40875425  0.71383227     0.33700
H5368       H  0.54206287  0.39036362  0.71085706     0.38200
H5369       H  0.60567413  0.44748073  0.68263828     0.33600
H5370       H  0.60176665  0.43177085  0.66616502     0.30300
H5371       H  0.54598052  0.38621571  0.65056363     0.33600
H5372       H  0.56911322  0.38269754  0.65121826     0.30300
H5373       H  0.58315605  0.46450566  0.62081295     0.38200
H5374       H  0.56009939  0.46667659  0.61762127     0.33700
C5375       C  0.59687930  0.42837112  0.59314492    -0.20100
C5376       C  0.60662756  0.42613564  0.57605284     0.36200
C5377       C  0.62596451  0.42834486  0.57510736    -0.26000
C5378       C  0.63648438  0.43208516  0.59092252     0.02600
C5379       C  0.62711012  0.43488163  0.60780246     0.27400
C5380       C  0.60773740  0.43320844  0.60876071    -0.25200
N5381       N  0.59700812  0.42082898  0.55961034    -0.82600
H5382       H  0.63289403  0.42651447  0.56188820     0.13200
C5383       C  0.65723166  0.43229697  0.58967596     0.02600
N5384       N  0.63729789  0.43836597  0.62439060    -0.81100
H5385       H  0.60183909  0.43411898  0.62243754     0.18000
C5386       C  0.66717905  0.44751762  0.59632911    -0.26000
C5387       C  0.68649101  0.44868951  0.59404461     0.36100
C5388       C  0.69624585  0.43444320  0.58507021    -0.20000
C5389       C  0.68654887  0.41887670  0.57912833    -0.25200
C5390       C  0.66717197  0.41759994  0.58139559     0.27400
H5391       H  0.65985542  0.45893395  0.60263684     0.13200
N5392       N  0.69615136  0.46475824  0.60015321    -0.82500
H5393       H  0.69399129  0.40812138  0.57184379     0.18000
N5394       N  0.65749204  0.40159981  0.57494046    -0.81100
H5395       H  0.69380542  0.46621606  0.61437930     0.33700
H5396       H  0.69047846  0.47620467  0.59345684     0.38200
H5397       H  0.66671897  0.39217376  0.56902634     0.33600
H5398       H  0.65158237  0.39511668  0.58648315     0.30300
H5399       H  0.63259396  0.45079532  0.62997924     0.33600
H5400       H  0.63429071  0.42789017  0.63389941     0.30300
H5401       H  0.60257670  0.40835938  0.55498470     0.38200
H5402       H  0.59950691  0.43077769  0.54940888     0.33700
C5403       C  0.42099602  0.57516449  0.57849833    -0.20100
C5404       C  0.43714069  0.58100980  0.56844796     0.36200
C5405       C  0.44778930  0.56836695  0.55795118    -0.26000
C5406       C  0.44273368  0.54979898  0.55553290     0.02600
C5407       C  0.42704100  0.54378553  0.56586285     0.27400
C5408       C  0.41742263  0.55600175  0.57793073    -0.25200
N5409       N  0.44380971  0.59953963  0.56942656    -0.82600
H5410       H  0.46054967  0.57337289  0.55191428     0.13200
C5411       C  0.45427594  0.53723639  0.54267153     0.02600
N5412       N  0.42021695  0.52542435  0.56383689    -0.81100
H5413       H  0.40611342  0.55055945  0.58619580     0.18000
C5414       C  0.45695671  0.51834588  0.54659868    -0.26000
C5415       C  0.46743658  0.50653615  0.53485803     0.36100
C5416       C  0.47738597  0.51353428  0.51919679    -0.20000
C5417       C  0.47533170  0.53269232  0.51596467    -0.25200
C5418       C  0.46330065  0.54401116  0.52649700     0.27400
H5419       H  0.45109053  0.51242263  0.55904631     0.13200
N5420       N  0.46802133  0.48728726  0.53915562    -0.82500
H5421       H  0.48271477  0.53943382  0.50489001     0.18000
N5422       N  0.45998234  0.56239904  0.52010808    -0.81100
H5423       H  0.45446479  0.48227939  0.53920842     0.33700
H5424       H  0.47334225  0.48574721  0.55250741     0.38200
H5425       H  0.47268195  0.56926177  0.51935205     0.33600
H5426       H  0.45460275  0.56167981  0.50671781     0.30300
H5427       H  0.42014976  0.51916623  0.57689757     0.33600
H5428       H  0.40654524  0.52618567  0.55924608     0.30300
H5429       H  0.45732830  0.59932026  0.57450483     0.38200
H5430       H  0.44430586  0.60490570  0.55598104     0.33700
C5431       C  0.38714476  0.58717030  0.58925058    -0.20100
C5432       C  0.37698183  0.57761178  0.57535911     0.36200
C5433       C  0.35740049  0.57809048  0.57545022    -0.26000
C5434       C  0.34728864  0.58866310  0.58827610     0.02600
C5435       C  0.35716230  0.59948568  0.60104058     0.27400
C5436       C  0.37651623  0.59847926  0.60139893    -0.25200
N5437       N  0.38600017  0.56834568  0.56036929    -0.82600
H5438       H  0.34997974  0.57032103  0.56507467     0.13200
C5439       C  0.32655745  0.58845564  0.58781945     0.02600
N5440       N  0.34818261  0.61189932  0.61375090    -0.81100
H5441       H  0.38351722  0.60670674  0.61170278     0.18000
C5442       C  0.31650945  0.58096972  0.60278972    -0.26000
C5443       C  0.29704610  0.57971309  0.60249033     0.36100
C5444       C  0.28720990  0.58642145  0.58692120    -0.20000
C5445       C  0.29730178  0.59455081  0.57230724    -0.25200
C5446       C  0.31678896  0.59548437  0.57250812     0.27400
H5447       H  0.32393105  0.57548798  0.61458521     0.13200
N5448       N  0.28792646  0.57054353  0.61767059    -0.82500
H5449       H  0.28995033  0.59902568  0.56004619     0.18000
N5450       N  0.32674862  0.60294146  0.55691908    -0.81100
H5451       H  0.29056820  0.57813292  0.62964844     0.33700
H5452       H  0.27359183  0.57058230  0.61605763     0.38200
H5453       H  0.31758715  0.60721427  0.54660682     0.33600
H5454       H  0.33369386  0.61470801  0.56142195     0.30300
H5455       H  0.35293310  0.62517536  0.61074716     0.33600
H5456       H  0.33390288  0.61231353  0.61186075     0.30300
H5457       H  0.38158181  0.55464053  0.56039175     0.38200
H5458       H  0.38165966  0.57435107  0.54795465     0.33700
C5459       C  0.41366603  0.58125190  0.61229248    -0.20100
C5460       C  0.43180784  0.58243527  0.61987504     0.36200
C5461       C  0.43498480  0.57842684  0.63877430    -0.26000
C5462       C  0.42060347  0.57275518  0.65057515     0.02600
C5463       C  0.40297307  0.56994817  0.64295072     0.27400
C5464       C  0.39995747  0.57330375  0.62408062    -0.25200
N5465       N  0.44711414  0.58807670  0.60859521    -0.82600
H5466       H  0.44881523  0.57988467  0.64429107     0.13200
C5467       C  0.42432374  0.56866629  0.67051887     0.02600
N5468       N  0.38767728  0.56396023  0.65416226    -0.81100
H5469       H  0.38643266  0.56970028  0.61898152     0.18000
C5470       C  0.42334590  0.58275356  0.68382659    -0.26000
C5471       C  0.42683214  0.57916960  0.70275603     0.36100
C5472       C  0.43091602  0.56110436  0.70870278    -0.20000
C5473       C  0.43157968  0.54702798  0.69526849    -0.25200
C5474       C  0.42868197  0.55065849  0.67632003     0.27400
H5475       H  0.42018236  0.59667479  0.67944429     0.13200
N5476       N  0.42704251  0.59406207  0.71568884    -0.82500
H5477       H  0.43467923  0.53306249  0.69953068     0.18000
N5478       N  0.43082261  0.53623585  0.66285532    -0.81100
H5479       H  0.43696201  0.60359176  0.71124455     0.33700
H5480       H  0.41410481  0.60049132  0.71537273     0.38200
H5481       H  0.43465085  0.52390934  0.66928837     0.33600
H5482       H  0.41797587  0.53387616  0.65676943     0.30300
H5483       H  0.39091838  0.55126809  0.66013344     0.33600
H5484       H  0.38571097  0.57351625  0.66480096     0.30300
H5485       H  0.45314093  0.59967239  0.61461351     0.38200
H5486       H  0.45692391  0.57749061  0.60864972     0.33700
C5487       C  0.41283546  0.60906928  0.58868198    -0.20100
C5488       C  0.40744502  0.61766991  0.57179085     0.36200
C5489       C  0.40763462  0.63693791  0.56987538    -0.26000
C5490       C  0.41494529  0.64853023  0.58357095     0.02600
C5491       C  0.42111704  0.64013236  0.60011844     0.27400
C5492       C  0.41921303  0.62095437  0.60282428    -0.25200
N5493       N  0.40137441  0.60683473  0.55644756    -0.82600
H5494       H  0.40198256  0.64278286  0.55732079     0.13200
C5495       C  0.41644215  0.66909579  0.58004614     0.02600
N5496       N  0.42965401  0.65091125  0.61426990    -0.81100
H5497       H  0.42260182  0.61576869  0.61636536     0.18000
C5498       C  0.41261530  0.68201358  0.59419114    -0.26000
C5499       C  0.41567833  0.70117414  0.59167158     0.36100
C5500       C  0.42114559  0.70797497  0.57406856    -0.20000
C5501       C  0.42257848  0.69514993  0.55947192    -0.25200
C5502       C  0.42169788  0.67605811  0.56245019     0.27400
H5503       H  0.40769463  0.67715522  0.60751108     0.13200
N5504       N  0.41373649  0.71346671  0.60709835    -0.82500
H5505       H  0.42537511  0.69989017  0.54553063     0.18000
N5506       N  0.42699406  0.66379364  0.54771974    -0.81100
H5507       H  0.40933912  0.70634130  0.61892709     0.33700
H5508       H  0.42688043  0.71863259  0.61005933     0.38200
H5509       H  0.43051740  0.67108636  0.53570540     0.33600
H5510       H  0.43895159  0.65685998  0.55190596     0.30300
H5511       H  0.42201518  0.64923499  0.62650259     0.33600
H5512       H  0.44293916  0.64567914  0.61650108     0.30300
H5513       H  0.40997913  0.60969240  0.54510978     0.38200
H5514       H  0.38795282  0.61096854  0.55304315     0.33700
loop_ 
_geom_bond_atom_site_label_1 
_geom_bond_atom_site_label_2 
_geom_bond_distance 
_geom_bond_site_symmetry_2 
_ccdc_geom_bond_type 
C1         C5403   1.594       .  S
C1         C5431   1.589       .  S
C1         C5459   1.588       .  S
C1         C5487   1.580       .  S
C2         C5291   1.594       .  S
C2         C5319   1.582       .  S
C2         C5347   1.580       .  S
C2         C5375   1.581       .  S
C3         C5192   1.599       .  S
C3         C5207   1.587       .  S
C3         C5235   1.584       .  S
C3         C5276   1.585       .  S
C4         C5067   1.595       .  S
C4         C5095   1.585       .  S
C4         C5123   1.580       .  S
C4         C5151   1.581       .  S
C5         C5080   1.600       .  S
C5         C5179   1.607       .  S
C5         C5304   1.604       .  S
C5         C5416   1.601       .  S
C6         C4955   1.598       .  S
C6         C4996   1.588       .  S
C6         C5024   1.586       .  S
C6         C5039   1.581       .  S
C7         C4843   1.596       .  S
C7         C4871   1.575       .  S
C7         C4899   1.582       .  S
C7         C4927   1.586       .  S
C8         C4744   1.593       .  S
C8         C4759   1.577       .  S
C8         C4787   1.586       .  S
C8         C4815   1.581       .  S
C9         C4632   1.601       .  S
C9         C4647   1.586       .  S
C9         C4675   1.580       .  S
C9         C4703   1.585       .  S
C10        C4619   1.598   1_654  S
C10        C4731   1.602   1_645  S
C10        C4856   1.600   1_544  S
C10        C4968   1.597       .  S
In11         O13   2.223       .  S
In11         O14   2.228       .  S
In11         O22   2.256       .  S
In11         O16   2.267       .  S
In11         O18   2.264       .  S
In11         O19   2.228       .  S
In11         O20   2.253       .  S
In11         O23   2.263       .  S
C12          O18   1.261       .  A
C12          O20   1.256       .  A
C12        C4535   1.486   1_655  S
O13          C21   1.263       .  A
O14          C21   1.262       .  A
C15          O22   1.259       .  A
C15          O16   1.261       .  A
C15        C4604   1.489       .  S
C17          O19   1.257       .  A
C17          O23   1.262       .  A
C17        C4563   1.484       .  S
C21        C4507   1.465       .  S
In24         O26   2.261       .  S
In24         O27   2.218       .  S
In24         O35   2.232       .  S
In24         O29   2.256       .  S
In24         O31   2.272       .  S
In24         O32   2.229       .  S
In24         O33   2.196       .  S
In24         O36   2.220       .  S
C25          O31   1.266   1_545  A
C25          O33   1.257   1_545  A
C25        C4451   1.481       .  S
O26          C34   1.264       .  A
O27          C34   1.258       .  A
C28          O35   1.259       .  A
C28          O29   1.262       .  A
C28        C4479   1.486       .  S
C30          O32   1.263       .  A
C30          O36   1.261       .  A
C30        C4395   1.468       .  S
C34        C4423   1.479       .  S
In37         O39   2.223       .  S
In37         O40   2.223       .  S
In37         O48   2.239       .  S
In37         O42   2.282       .  S
In37         O44   2.283   1_455  S
In37         O45   2.233       .  S
In37         O46   2.222       .  S
In37         O49   2.272       .  S
C38          O44   1.267       .  A
C38          O46   1.255   1_655  A
C38        C4352   1.488       .  S
O39          C47   1.264       .  A
O40          C47   1.264       .  A
C41          O48   1.258       .  A
C41          O42   1.264       .  A
C41        C4367   1.488       .  S
C43          O45   1.257       .  A
C43          O49   1.264       .  A
C43        C4324   1.491       .  S
C47        C4283   1.475       .  S
In50         O52   2.254       .  S
In50         O53   2.249       .  S
In50         O61   2.254       .  S
In50         O55   2.265       .  S
In50         O57   2.266       .  S
In50         O58   2.245       .  S
In50         O59   2.228       .  S
In50         O62   2.230       .  S
C51          O57   1.266       .  A
C51          O59   1.260       .  A
C51        C4199   1.487       .  S
O52          C60   1.262       .  A
O53          C60   1.261       .  A
C54          O61   1.259       .  A
C54          O55   1.262       .  A
C54        C4255   1.493       .  S
C56          O58   1.263       .  A
C56          O62   1.260       .  A
C56        C4171   1.480       .  S
C60        C4240   1.490       .  S
C63        C4156   1.544       .  S
C63          C64   1.539       .  S
C63          C69   1.534       .  S
C63          C67   1.537       .  S
C64          H71   1.086       .  S
C64          C65   1.373       .  D
C65          C66   1.550       .  S
C65        C4591   1.500       .  S
C66          C70   1.554       .  S
C66          C68   1.547       .  S
C66          H72   1.110       .  S
C67          H73   1.086       .  S
C67          C68   1.367       .  D
C68        C4268   1.497       .  S
C69          H74   1.080       .  S
C69          C70   1.361       .  D
C70        C5011   1.495       .  S
C75        C4143   1.539       .  S
C75          C76   1.539       .  S
C75          C81   1.521       .  S
C75          C79   1.536       .  S
C76          H83   1.086       .  S
C76          C77   1.371       .  D
C77          C78   1.548       .  S
C77        C4380   1.507       .  S
C78          C82   1.566       .  S
C78          C80   1.552       .  S
C78          H84   1.106       .  S
C79          H85   1.081       .  S
C79          C80   1.367       .  D
C80        C4492   1.487       .  S
C81          H86   1.086       .  S
C81          C82   1.366       .  D
C82        C4800   1.513       .  S
In87         O89   2.229       .  S
In87         O90   2.224       .  S
In87         O98   2.255       .  S
In87         O92   2.266       .  S
In87         O94   2.253       .  S
In87         O95   2.256       .  S
In87         O96   2.265       .  S
In87         O99   2.263       .  S
C88          O94   1.256       .  A
C88          O96   1.260       .  A
C88        C4087   1.486   1_565  S
O89          C97   1.263       .  A
O90          C97   1.264       .  A
C91          O98   1.258       .  A
C91          O92   1.258       .  A
C91        C4115   1.484       .  S
C93          O95   1.257       .  A
C93          O99   1.261       .  A
C93        C4072   1.491       .  S
C97        C4408   1.477       .  S
In100       O102   2.252       .  S
In100       O103   2.217       .  S
In100       O111   2.247       .  S
In100       O105   2.273       .  S
In100       O107   2.278       .  S
In100       O108   2.242       .  S
In100       O109   2.215       .  S
In100       O112   2.224       .  S
C101        O107   1.268       .  A
C101        O109   1.256       .  A
C101       C4003   1.488   1_556  S
O102        C110   1.266       .  A
O103        C110   1.261       .  A
C104        O111   1.258       .  A
C104        O105   1.261       .  A
C104       C4031   1.488       .  S
C106        O108   1.261       .  A
C106        O112   1.259       .  A
C106       C3947   1.478       .  S
C110       C3975   1.485       .  S
In113       O115   2.223       .  S
In113       O116   2.241       .  S
In113       O124   2.281       .  S
In113       O118   2.248       .  S
In113       O120   2.260       .  S
In113       O121   2.226       .  S
In113       O122   2.232       .  S
In113       O125   2.285       .  S
C114        O120   1.263       .  A
C114        O122   1.258       .  A
C114       C3863   1.478   1_545  S
O115        C123   1.260       .  A
O116        C123   1.262       .  A
C117        O124   1.264       .  A
C117        O118   1.257       .  A
C117       C3932   1.496       .  S
C119        O121   1.256       .  A
C119        O125   1.267       .  A
C119       C3904   1.494       .  S
C123       C3848   1.469       .  S
In126       O128   2.262       .  S
In126       O129   2.239       .  S
In126       O137   2.260       .  S
In126       O131   2.270       .  S
In126       O133   2.272       .  S
In126       O134   2.241       .  S
In126       O135   2.233       .  S
In126       O138   2.222       .  S
C127        O133   1.268       .  A
C127        O135   1.261       .  A
C127       C3751   1.495   1_554  S
O128        C136   1.264       .  A
O129        C136   1.258       .  A
C130        O137   1.258       .  A
C130        O131   1.261       .  A
C130       C3820   1.496       .  S
C132        O134   1.259       .  A
C132        O138   1.259       .  A
C132       C3736   1.470       .  S
C136       C3792   1.482       .  S
C139       C3695   1.531       .  S
C139        C140   1.539       .  S
C139        C145   1.518       .  S
C139        C143   1.534       .  S
C140        H147   1.086       .  S
C140        C141   1.370       .  D
C141        C142   1.545       .  S
C141       C4128   1.499       .  S
C142        C146   1.566       .  S
C142        C144   1.557       .  S
C142        H148   1.106       .  S
C143        H149   1.082       .  S
C143        C144   1.368       .  D
C144       C3807   1.495       .  S
C145        H150   1.086       .  S
C145        C146   1.362       .  D
C146       C4828   1.514       .  S
C151       C3708   1.535       .  S
C151        C152   1.536       .  S
C151        C157   1.537       .  S
C151        C155   1.530       .  S
C152        H159   1.082       .  S
C152        C153   1.362       .  D
C153        C154   1.557       .  S
C153       C4716   1.494       .  S
C154        C158   1.552       .  S
C154        C156   1.551       .  S
C154        H160   1.108       .  S
C155        H161   1.087       .  S
C155        C156   1.362       .  D
C156       C3919   1.490       .  S
C157        H162   1.085       .  S
C157        C158   1.371       .  D
C158       C4044   1.506       .  S
In163       O165   2.257       .  S
In163       O166   2.226       .  S
In163       O174   2.259       .  S
In163       O168   2.257       .  S
In163       O170   2.273       .  S
In163       O171   2.226       .  S
In163       O172   2.230       .  S
In163       O175   2.227       .  S
C164        O170   1.266       .  A
C164        O172   1.258       .  A
C164       C3611   1.488   1_655  S
O165        C173   1.264       .  A
O166        C173   1.258       .  A
C167        O174   1.259       .  A
C167        O168   1.260       .  A
C167       C3667   1.492       .  S
C169        O171   1.260       .  A
C169        O175   1.260       .  A
C169       C4520   1.474       .  S
C173       C3639   1.481       .  S
In176       O178   2.233       .  S
In176       O179   2.223       .  S
In176       O187   2.267       .  S
In176       O181   2.266       .  S
In176       O183   2.250       .  S
In176       O184   2.239       .  S
In176       O185   2.280       .  S
In176       O188   2.268       .  S
C177        O183   1.256       .  A
C177        O185   1.262       .  A
C177       C3555   1.489   1_556  S
O178        C186   1.264       .  A
O179        C186   1.263       .  A
C180        O187   1.259       .  A
C180        O181   1.261       .  A
C180       C3596   1.494       .  S
C182        O184   1.258       .  A
C182        O188   1.262       .  A
C182       C3527   1.486       .  S
C186       C3960   1.476       .  S
In189       O191   2.225       .  S
In189       O192   2.271       .  S
In189       O200   2.261       .  S
In189       O194   2.259       .  S
In189       O196   2.226       .  S
In189       O197   2.240       .  S
In189       O198   2.272       .  S
In189       O201   2.221       .  S
C190        O196   1.259   1_655  A
C190        O198   1.266   1_655  A
C190       C3484   1.488       .  S
O191        C199   1.257       .  A
O192        C199   1.265       .  A
C193        O200   1.260       .  A
C193        O194   1.260       .  A
C193       C3499   1.492       .  S
C195        O197   1.261       .  A
C195        O201   1.260       .  A
C195       C3428   1.475       .  S
C199       C3443   1.485       .  S
In202       O204   2.227       .  S
In202       O205   2.225       .  S
In202       O213   2.253       .  S
In202       O207   2.256       .  S
In202       O209   2.273       .  S
In202       O210   2.218       .  S
In202       O211   2.259       .  S
In202       O214   2.264       .  S
C203        O209   1.260       .  A
C203        O211   1.257       .  A
C203       C3331   1.494       .  S
O204        C212   1.266       .  A
O205        C212   1.261       .  A
C206        O213   1.257       .  A
C206        O207   1.260       .  A
C206       C3387   1.487       .  S
C208        O210   1.255       .  A
C208        O214   1.261       .  A
C208       C3359   1.480       .  S
C212       C3303   1.474       .  S
C215       C3288   1.531       .  S
C215        C216   1.551       .  S
C215        C221   1.520       .  S
C215        C219   1.528       .  S
C216        H223   1.081       .  S
C216        C217   1.372       .  D
C217        C218   1.543       .  S
C217       C3400   1.493       .  S
C218        C222   1.560       .  S
C218        C220   1.553       .  S
C218        H224   1.110       .  S
C219        H225   1.087       .  S
C219        C220   1.365       .  D
C220       C3680   1.497       .  S
C221        H226   1.087       .  S
C221        C222   1.358       .  D
C222       C5052   1.497       .  S
C227       C3275   1.535       .  S
C227        C228   1.521       .  S
C227        C233   1.531       .  S
C227        C231   1.552       .  S
C228        H235   1.087       .  S
C228        C229   1.359       .  D
C229        C230   1.556       .  S
C229       C4688   1.491       .  S
C230        C234   1.552       .  S
C230        C232   1.546       .  S
C230        H236   1.110       .  S
C231        H237   1.081       .  S
C231        C232   1.373       .  D
C232       C3583   1.499       .  S
C233        H238   1.087       .  S
C233        C234   1.366       .  D
C234       C3512   1.497       .  S
In239       O241   2.242       .  S
In239       O242   2.259       .  S
In239       O250   2.238       .  S
In239       O244   2.269       .  S
In239       O246   2.265       .  S
In239       O247   2.230       .  S
In239       O248   2.228       .  S
In239       O251   2.225       .  S
C240        O246   1.263       .  A
C240        O248   1.257       .  A
C240       C3372   1.484       .  S
O241        C249   1.257       .  A
O242        C249   1.261       .  A
C243        O250   1.258       .  A
C243        O244   1.262       .  A
C243       C3247   1.487       .  S
C245        O247   1.261       .  A
C245        O251   1.262       .  A
C245       C3191   1.476       .  S
C249       C3219   1.481       .  S
In252       O254   2.212       .  S
In252       O255   2.241       .  S
In252       O263   2.275       .  S
In252       O257   2.250       .  S
In252       O259   2.267       .  S
In252       O260   2.244       .  S
In252       O261   2.229       .  S
In252       O264   2.250       .  S
C253        O259   1.266       .  A
C253        O261   1.260       .  A
C253       C3135   1.489       .  S
O254        C262   1.260       .  A
O255        C262   1.261       .  A
C256        O263   1.261       .  A
C256        O257   1.256       .  A
C256       C3163   1.492       .  S
C258        O260   1.260       .  A
C258        O264   1.263       .  A
C258       C4016   1.483       .  S
C262       C3120   1.472       .  S
In265       O267   2.211       .  S
In265       O268   2.237       .  S
In265       O276   2.276       .  S
In265       O270   2.247       .  S
In265       O272   2.262       .  S
In265       O273   2.240       .  S
In265       O274   2.244       .  S
In265       O277   2.269       .  S
C266        O272   1.264       .  A
C266        O274   1.260       .  A
C266       C3779   1.491       .  S
O267        C275   1.260       .  A
O268        C275   1.263       .  A
C269        O276   1.262       .  A
C269        O270   1.260       .  A
C269       C3079   1.498       .  S
C271        O273   1.259       .  A
C271        O277   1.264       .  A
C271       C3064   1.491       .  S
C275       C3036   1.470       .  S
In278       O280   2.264       .  S
In278       O281   2.245       .  S
In278       O289   2.239       .  S
In278       O283   2.268       .  S
In278       O285   2.266       .  S
In278       O286   2.246       .  S
In278       O287   2.221       .  S
In278       O290   2.237       .  S
C279        O285   1.266       .  A
C279        O287   1.259       .  A
C279       C2967   1.489       .  S
O280        C288   1.263       .  A
O281        C288   1.261       .  A
C282        O289   1.258       .  A
C282        O283   1.263       .  A
C282       C2995   1.491       .  S
C284        O286   1.262       .  A
C284        O290   1.260       .  A
C284       C2939   1.479       .  S
C288       C3568   1.493       .  S
C291       C2911   1.533       .  S
C291        C292   1.537       .  S
C291        C297   1.522       .  S
C291        C295   1.542       .  S
C292        H299   1.086       .  S
C292        C293   1.373       .  D
C293        C294   1.552       .  S
C293       C3176   1.505       .  S
C294        C298   1.558       .  S
C294        C296   1.540       .  S
C294        H300   1.108       .  S
C295        H301   1.080       .  S
C295        C296   1.362       .  D
C296       C3008   1.482       .  S
C297        H302   1.087       .  S
C297        C298   1.358       .  D
C298       C5108   1.488       .  S
C303       C2924   1.534       .  S
C303        C304   1.530       .  S
C303        C309   1.542       .  S
C303        C307   1.530       .  S
C304        H311   1.082       .  S
C304        C305   1.359       .  D
C305        C306   1.554       .  S
C305       C5220   1.496       .  S
C306        C310   1.546       .  S
C306        C308   1.549       .  S
C306        H312   1.110       .  S
C307        H313   1.086       .  S
C307        C308   1.366       .  D
C308       C3092   1.489       .  S
C309        H314   1.084       .  S
C309        C310   1.370       .  D
C310       C3260   1.496       .  S
In315       O317   2.220       .  S
In315       O318   2.275       .  S
In315       O326   2.241       .  S
In315       O320   2.291       .  S
In315       O322   2.278       .  S
In315       O323   2.245       .  S
In315       O324   2.235       .  S
In315       O327   2.217       .  S
C316        O322   1.264       .  A
C316        O324   1.256       .  A
C316       C3891   1.489       .  S
O317        C325   1.258       .  A
O318        C325   1.267       .  A
C319        O326   1.256       .  A
C319        O320   1.263       .  A
C319       C2883   1.485       .  S
C321        O323   1.262       .  A
C321        O327   1.261       .  A
C321       C2827   1.467       .  S
C325       C2855   1.488       .  S
In328       O330   2.276       .  S
In328       O331   2.234       .  S
In328       O339   2.278       .  S
In328       O333   2.241       .  S
In328       O335   2.269       .  S
In328       O336   2.250       .  S
In328       O337   2.226       .  S
In328       O340   2.203       .  S
C329        O335   1.265       .  A
C329        O337   1.257       .  A
C329       C2771   1.487       .  S
O330        C338   1.262       .  A
O331        C338   1.255       .  A
C332        O339   1.263       .  A
C332        O333   1.257       .  A
C332       C2799   1.490       .  S
C334        O336   1.263       .  A
C334        O340   1.259       .  A
C334       C3107   1.470       .  S
C338       C4100   1.488       .  S
In341       O343   2.221       .  S
In341       O344   2.221       .  S
In341       O352   2.270       .  S
In341       O346   2.254       .  S
In341       O348   2.268       .  S
In341       O349   2.219       .  S
In341       O350   2.241       .  S
In341       O353   2.262       .  S
C342        O348   1.263       .  A
C342        O350   1.255       .  A
C342       C4227   1.487       .  S
O343        C351   1.262       .  A
O344        C351   1.260       .  A
C345        O352   1.259       .  A
C345        O346   1.259       .  A
C345       C2743   1.488       .  S
C347        O349   1.257       .  A
C347        O353   1.266       .  A
C347       C2715   1.484       .  S
C351       C2687   1.462       .  S
In354       O356   2.213       .  S
In354       O357   2.231       .  S
In354       O365   2.260       .  S
In354       O359   2.236       .  S
In354       O361   2.252       .  S
In354       O362   2.210       .  S
In354       O363   2.241       .  S
In354       O366   2.251       .  S
C355        O361   1.262       .  A
C355        O363   1.258       .  A
C355       C2631   1.484       .  S
O356        C364   1.261       .  A
O357        C364   1.262       .  A
C358        O365   1.261       .  A
C358        O359   1.260       .  A
C358       C2659   1.483       .  S
C360        O362   1.260       .  A
C360        O366   1.264       .  A
C360       C4464   1.481       .  S
C364       C2616   1.467       .  S
C367       C2575   1.539       .  S
C367        C368   1.533       .  S
C367        C373   1.525       .  S
C367        C371   1.545       .  S
C368        H375   1.087       .  S
C368        C369   1.365       .  D
C369        C370   1.547       .  S
C369       C2672   1.490       .  S
C370        C374   1.557       .  S
C370        C372   1.554       .  S
C370        H376   1.109       .  S
C371        H377   1.080       .  S
C371        C372   1.374       .  D
C372       C2812   1.506       .  S
C373        H378   1.087       .  S
C373        C374   1.359       .  D
C374       C5136   1.495       .  S
C379       C2588   1.543       .  S
C379        C380   1.537       .  S
C379        C385   1.539       .  S
C379        C383   1.540       .  S
C380        H387   1.086       .  S
C380        C381   1.366       .  D
C381        C382   1.543       .  S
C381       C2756   1.488       .  S
C382        C386   1.546       .  S
C382        C384   1.544       .  S
C382        H388   1.110       .  S
C383        H389   1.085       .  S
C383        C384   1.372       .  D
C384       C2896   1.495       .  S
C385        H390   1.080       .  S
C385        C386   1.361       .  D
C386       C5332   1.487       .  S
In391       O393   2.238       .  S
In391       O394   2.218       .  S
In391       O402   2.239       .  S
In391       O396   2.260       .  S
In391       O398   2.250       .  S
In391       O399   2.232       .  S
In391       O400   2.237       .  S
In391       O403   2.259       .  S
C392        O398   1.263       .  A
C392        O400   1.259       .  A
C392       C3652   1.482       .  S
O393        C401   1.263       .  A
O394        C401   1.262       .  A
C395        O402   1.260       .  A
C395        O396   1.260       .  A
C395       C2547   1.483       .  S
C397        O399   1.258       .  A
C397        O403   1.263       .  A
C397       C2519   1.485       .  S
C401       C3204   1.477       .  S
In404       O406   2.228       .  S
In404       O407   2.233       .  S
In404       O415   2.241       .  S
In404       O409   2.273       .  S
In404       O411   2.258       .  S
In404       O412   2.225       .  S
In404       O413   2.256       .  S
In404       O416   2.267       .  S
C405        O411   1.256       .  A
C405        O413   1.258       .  A
C405       C2463   1.486       .  S
O406        C414   1.261       .  A
O407        C414   1.262       .  A
C408        O415   1.258       .  A
C408        O409   1.261       .  A
C408       C2491   1.488       .  S
C410        O412   1.258       .  A
C410        O416   1.264       .  A
C410       C3471   1.482       .  S
C414       C2435   1.471       .  S
In417       O419   2.248       .  S
In417       O420   2.214       .  S
In417       O428   2.237       .  S
In417       O422   2.243       .  S
In417       O424   2.255       .  S
In417       O425   2.216       .  S
In417       O426   2.217       .  S
In417       O429   2.233       .  S
C418        O424   1.264       .  A
C418        O426   1.260       .  A
C418       C4576   1.483       .  S
O419        C427   1.263       .  A
O420        C427   1.256       .  A
C421        O428   1.259       .  A
C421        O422   1.260       .  A
C421       C2420   1.481       .  S
C423        O425   1.260       .  A
C423        O429   1.262       .  A
C423       C2700   1.475       .  S
C427       C2379   1.477       .  S
In430       O432   2.265       .  S
In430       O433   2.241       .  S
In430       O441   2.255       .  S
In430       O435   2.266       .  S
In430       O437   2.268       .  S
In430       O438   2.228       .  S
In430       O439   2.233       .  S
In430       O442   2.229       .  S
C431        O437   1.265       .  A
C431        O439   1.256       .  A
C431       C2323   1.487       .  S
O432        C440   1.262       .  A
O433        C440   1.258       .  A
C434        O441   1.258       .  A
C434        O435   1.260       .  A
C434       C2351   1.490       .  S
C436        O438   1.260       .  A
C436        O442   1.261       .  A
C436       C2295   1.469       .  S
C440       C4339   1.489       .  S
C443       C2267   1.534       .  S
C443        C444   1.536       .  S
C443        C449   1.531       .  S
C443        C447   1.537       .  S
C444        H451   1.086       .  S
C444        C445   1.369       .  D
C445        C446   1.551       .  S
C445       C2560   1.498       .  S
C446        C450   1.554       .  S
C446        C448   1.550       .  S
C446        H452   1.110       .  S
C447        H453   1.086       .  S
C447        C448   1.368       .  D
C448       C2364   1.499       .  S
C449        H454   1.080       .  S
C449        C450   1.355       .  D
C450       C5263   1.487       .  S
C455       C2280   1.530       .  S
C455        C456   1.542       .  S
C455        C461   1.522       .  S
C455        C459   1.538       .  S
C456        H463   1.086       .  S
C456        C457   1.369       .  D
C457        C458   1.542       .  S
C457       C2504   1.489       .  S
C458        C462   1.554       .  S
C458        C460   1.546       .  S
C458        H464   1.111       .  S
C459        H465   1.082       .  S
C459        C460   1.366       .  D
C460       C2407   1.487       .  S
C461        H466   1.087       .  S
C461        C462   1.358       .  D
C462       C5388   1.486       .  S
In467       O469   2.235       .  S
In467       O470   2.230       .  S
In467       O478   2.236       .  S
In467       O472   2.260       .  S
In467       O474   2.224       .  S
In467       O475   2.238       .  S
In467       O476   2.260       .  S
In467       O479   2.251       .  S
C468        O474   1.257       .  A
C468        O476   1.262       .  A
C468       C2392   1.480   1_455  S
O469        C477   1.264       .  A
O470        C477   1.262       .  A
C471        O478   1.257       .  A
C471        O472   1.259       .  A
C471       C2252   1.476       .  S
C473        O475   1.259       .  A
C473        O479   1.261       .  A
C473       C2211   1.485       .  S
C477       C3415   1.478       .  S
In480       O482   2.265       .  S
In480       O483   2.224       .  S
In480       O491   2.258       .  S
In480       O485   2.274       .  S
In480       O487   2.272       .  S
In480       O488   2.225       .  S
In480       O489   2.240       .  S
In480       O492   2.230       .  S
C481        O487   1.264       .  A
C481        O489   1.259       .  A
C481       C2168   1.492   1_545  S
O482        C490   1.263       .  A
O483        C490   1.256       .  A
C484        O491   1.256       .  A
C484        O485   1.263       .  A
C484       C2183   1.495       .  S
C486        O488   1.259       .  A
C486        O492   1.261       .  A
C486       C3835   1.475       .  S
C490       C2644   1.481       .  S
In493       O495   2.227       .  S
In493       O496   2.236       .  S
In493       O504   2.268       .  S
In493       O498   2.252       .  S
In493       O500   2.260       .  S
In493       O501   2.220       .  S
In493       O502   2.233       .  S
In493       O505   2.274       .  S
C494        O500   1.265       .  A
C494        O502   1.259       .  A
C494       C2099   1.489       .  S
O495        C503   1.260       .  A
O496        C503   1.259       .  A
C497        O504   1.262       .  A
C497        O498   1.260       .  A
C497       C2127   1.494       .  S
C499        O501   1.255       .  A
C499        O505   1.265       .  A
C499       C2336   1.487       .  S
C503       C2071   1.462       .  S
In506       O508   2.262       .  S
In506       O509   2.211       .  S
In506       O517   2.263       .  S
In506       O511   2.224       .  S
In506       O513   2.262   1_565  S
In506       O514   2.249       .  S
In506       O515   2.229       .  S
In506       O518   2.209       .  S
C507        O513   1.264       .  A
C507        O515   1.257   1_545  A
C507       C2728   1.487       .  S
O508        C516   1.266       .  A
O509        C516   1.259       .  A
C510        O517   1.264       .  A
C510        O511   1.257       .  A
C510       C2043   1.482       .  S
C512        O514   1.262       .  A
C512        O518   1.261       .  A
C512       C1987   1.473       .  S
C516       C2015   1.481       .  S
C519       C1959   1.529       .  S
C519        C520   1.542       .  S
C519        C525   1.526       .  S
C519        C523   1.531       .  S
C520        H527   1.079       .  S
C520        C521   1.368       .  D
C521        C522   1.544       .  S
C521       C2239   1.490       .  S
C522        C526   1.555       .  S
C522        C524   1.550       .  S
C522        H528   1.109       .  S
C523        H529   1.087       .  S
C523        C524   1.365       .  D
C524       C2196   1.494       .  S
C525        H530   1.087       .  S
C525        C526   1.361       .  D
C526       C4660   1.492       .  S
C531       C1972   1.527       .  S
C531        C532   1.538       .  S
C531        C537   1.518       .  S
C531        C535   1.528       .  S
C532        H539   1.081       .  S
C532        C533   1.364       .  D
C533        C534   1.551       .  S
C533       C2140   1.494       .  S
C534        C538   1.564       .  S
C534        C536   1.554       .  S
C534        H540   1.109       .  S
C535        H541   1.086       .  S
C535        C536   1.368       .  D
C536       C2056   1.496       .  S
C537        H542   1.086       .  S
C537        C538   1.362       .  D
C538       C4884   1.505       .  S
In543       O545   2.265       .  S
In543       O546   2.245       .  S
In543       O554   2.260       .  S
In543       O548   2.256       .  S
In543       O550   2.223       .  S
In543       O551   2.241       .  S
In543       O552   2.276       .  S
In543       O555   2.218       .  S
C544        O550   1.259       .  A
C544        O552   1.265       .  A
C544       C4059   1.490       .  S
O545        C553   1.263       .  A
O546        C553   1.257       .  A
C547        O554   1.261       .  A
C547        O548   1.257       .  A
C547       C1931   1.487       .  S
C549        O551   1.261       .  A
C549        O555   1.261       .  A
C549       C3023   1.474       .  S
C553       C1903   1.484       .  S
In556       O558   2.259       .  S
In556       O559   2.221       .  S
In556       O567   2.253       .  S
In556       O561   2.255       .  S
In556       O563   2.273       .  S
In556       O564   2.238       .  S
In556       O565   2.216       .  S
In556       O568   2.231       .  S
C557        O563   1.266       .  A
C557        O565   1.258       .  A
C557       C1847   1.488       .  S
O558        C566   1.263       .  A
O559        C566   1.258       .  A
C560        O567   1.259       .  A
C560        O561   1.261       .  A
C560       C1875   1.489       .  S
C562        O564   1.261       .  A
C562        O568   1.262       .  A
C562       C1819   1.476       .  S
C566       C3876   1.484       .  S
In569       O571   2.213       .  S
In569       O572   2.243       .  S
In569       O580   2.252       .  S
In569       O574   2.272       .  S
In569       O576   2.268       .  S
In569       O577   2.238       .  S
In569       O578   2.228       .  S
In569       O581   2.258       .  S
C570        O576   1.265       .  A
C570        O578   1.258       .  A
C570       C2028   1.480       .  S
O571        C579   1.258       .  A
O572        C579   1.262       .  A
C573        O580   1.257       .  A
C573        O574   1.263       .  A
C573       C1791   1.494       .  S
C575        O577   1.261       .  A
C575        O581   1.264       .  A
C575       C4212   1.488       .  S
C579       C2308   1.474       .  S
In582       O584   2.218       .  S
In582       O585   2.235       .  S
In582       O593   2.244       .  S
In582       O587   2.263       .  S
In582       O589   2.246       .  S
In582       O590   2.247       .  S
In582       O591   2.225       .  S
In582       O594   2.243       .  S
C583        O589   1.265       .  A
C583        O591   1.260       .  A
C583       C4436   1.478       .  S
O584        C592   1.260       .  A
O585        C592   1.262       .  A
C586        O593   1.259       .  A
C586        O587   1.263       .  A
C586       C1776   1.489       .  S
C588        O590   1.260       .  A
C588        O594   1.260       .  A
C588       C2155   1.478       .  S
C592       C1735   1.472       .  S
C595       C1804   1.543       .  S
C595        C596   1.541       .  S
C595        C601   1.529       .  S
C595        C599   1.549       .  S
C596        H603   1.085       .  S
C596        C597   1.372       .  D
C597        C598   1.543       .  S
C597       C1707   1.500       .  S
C598        C602   1.537       .  S
C598        C600   1.544       .  S
C598        H604   1.106       .  S
C599        H605   1.082       .  S
C599        C600   1.374       .  D
C600       C5248   1.498       .  S
C601        H606   1.087       .  S
C601        C602   1.358       .  D
C602       C1944   1.475       .  S
C607       C1720   1.544       .  S
C607        C608   1.553       .  S
C607        C613   1.518       .  S
C607        C611   1.525       .  S
C608        H615   1.080       .  S
C608        C609   1.373       .  D
C609        C610   1.546       .  S
C609       C1763   1.503       .  S
C610        C614   1.568       .  S
C610        C612   1.554       .  S
C610        H616   1.105       .  S
C611        H617   1.087       .  S
C611        C612   1.362       .  D
C612       C1888   1.494       .  S
C613        H618   1.082       .  S
C613        C614   1.369       .  D
C614       C5500   1.521       .  S
In619       O621   2.233       .  S
In619       O622   2.236       .  S
In619       O630   2.258       .  S
In619       O624   2.257       .  S
In619       O626   2.272       .  S
In619       O627   2.246       .  S
In619       O628   2.251       .  S
In619       O631   2.253       .  S
C620        O626   1.260   1_565  A
C620        O628   1.256   1_565  A
C620       C1916   1.489       .  S
O621        C629   1.261       .  A
O622        C629   1.262       .  A
C623        O630   1.260       .  A
C623        O624   1.262       .  A
C623       C1692   1.492       .  S
C625        O627   1.260       .  A
C625        O631   1.262       .  A
C625       C2784   1.487       .  S
C629       C4184   1.473       .  S
In632       O634   2.276       .  S
In632       O635   2.236       .  S
In632       O643   2.296       .  S
In632       O637   2.248       .  S
In632       O639   2.271       .  S
In632       O640   2.257       .  S
In632       O641   2.232       .  S
In632       O644   2.204       .  S
C633        O639   1.263       .  A
C633        O641   1.255       .  A
C633       C1636   1.487   1_554  S
O634        C642   1.266       .  A
O635        C642   1.258       .  A
C636        O643   1.263       .  A
C636        O637   1.256       .  A
C636       C1651   1.491       .  S
C638        O640   1.264       .  A
C638        O644   1.257       .  A
C638       C3316   1.478       .  S
C642       C3148   1.488       .  S
In645       O647   2.239       .  S
In645       O648   2.227       .  S
In645       O656   2.261       .  S
In645       O650   2.251       .  S
In645       O652   2.273       .  S
In645       O653   2.237       .  S
In645       O654   2.248       .  S
In645       O657   2.261       .  S
C646        O652   1.262       .  A
C646        O654   1.259       .  A
C646       C2868   1.493   1_565  S
O647        C655   1.259       .  A
O648        C655   1.262       .  A
C649        O656   1.262       .  A
C649        O650   1.261       .  A
C649       C1595   1.494       .  S
C651        O653   1.256       .  A
C651        O657   1.262       .  A
C651       C1860   1.482       .  S
C655       C2000   1.470       .  S
In658       O660   2.254       .  S
In658       O661   2.243       .  S
In658       O669   2.251       .  S
In658       O663   2.263       .  S
In658       O665   2.245       .  S
In658       O666   2.234       .  S
In658       O667   2.276       .  S
In658       O670   2.238       .  S
C659        O665   1.257       .  A
C659        O667   1.262       .  A
C659       C3051   1.491   1_556  S
O660        C668   1.261       .  A
O661        C668   1.259       .  A
C662        O669   1.258       .  A
C662        O663   1.260       .  A
C662       C1567   1.486       .  S
C664        O666   1.262       .  A
C664        O670   1.262       .  A
C664       C1511   1.476       .  S
C668       C1539   1.486       .  S
C671       C1496   1.537       .  S
C671        C672   1.532       .  S
C671        C677   1.536       .  S
C671        C675   1.538       .  S
C672        H679   1.087       .  S
C672        C673   1.364       .  D
C673        C674   1.549       .  S
C673       C1679   1.489       .  S
C674        C678   1.558       .  S
C674        C676   1.549       .  S
C674        H680   1.110       .  S
C675        H681   1.086       .  S
C675        C676   1.369       .  D
C676       C1664   1.496       .  S
C677        H682   1.080       .  S
C677        C678   1.361       .  D
C678       C4983   1.496       .  S
C683       C1483   1.531       .  S
C683        C684   1.534       .  S
C683        C689   1.518       .  S
C683        C687   1.544       .  S
C684        H691   1.087       .  S
C684        C685   1.364       .  D
C685        C686   1.550       .  S
C685       C1608   1.492       .  S
C686        C690   1.565       .  S
C686        C688   1.552       .  S
C686        H692   1.110       .  S
C687        H693   1.082       .  S
C687        C688   1.374       .  D
C688       C1580   1.499       .  S
C689        H694   1.088       .  S
C689        C690   1.357       .  D
C690       C4940   1.502       .  S
In695       O697   2.252       .  S
In695       O698   2.223       .  S
In695       O706   2.264       .  S
In695       O700   2.242       .  S
In695       O702   2.272       .  S
In695       O703   2.224       .  S
In695       O704   2.210       .  S
In695       O707   2.239       .  S
C696        O702   1.267   1_655  A
C696        O704   1.257   1_655  A
C696       C2532   1.484       .  S
O697        C705   1.263       .  A
O698        C705   1.260       .  A
C699        O706   1.260       .  A
C699        O700   1.258       .  A
C699       C1455   1.486       .  S
C701        O703   1.260       .  A
C701        O707   1.262       .  A
C701       C4296   1.471       .  S
C705       C1427   1.484       .  S
In708       O710   2.216       .  S
In708       O711   2.231       .  S
In708       O719   2.269       .  S
In708       O713   2.252       .  S
In708       O715   2.274       .  S
In708       O716   2.241       .  S
In708       O717   2.234       .  S
In708       O720   2.256       .  S
C709        O715   1.265       .  A
C709        O717   1.259       .  A
C709       C1371   1.489   1_554  S
O710        C718   1.261       .  A
O711        C718   1.263       .  A
C712        O719   1.261       .  A
C712        O713   1.259       .  A
C712       C1399   1.495       .  S
C714        O716   1.259       .  A
C714        O720   1.265       .  A
C714       C2980   1.484       .  S
C718       C3723   1.470       .  S
In721       O723   2.257       .  S
In721       O724   2.240       .  S
In721       O732   2.277       .  S
In721       O726   2.239       .  S
In721       O728   2.248       .  S
In721       O729   2.235       .  S
In721       O730   2.244       .  S
In721       O733   2.216       .  S
C722        O728   1.263       .  A
C722        O730   1.261       .  A
C722       C1315   1.487       .  S
O723        C731   1.263       .  A
O724        C731   1.258       .  A
C725        O732   1.261       .  A
C725        O726   1.256       .  A
C725       C1343   1.484       .  S
C727        O729   1.262       .  A
C727        O733   1.262       .  A
C727       C2084   1.468       .  S
C731       C2476   1.484       .  S
In734       O736   2.223       .  S
In734       O737   2.240       .  S
In734       O745   2.268       .  S
In734       O739   2.259       .  S
In734       O741   2.267   1_556  S
In734       O742   2.232       .  S
In734       O743   2.237       .  S
In734       O746   2.259       .  S
C735        O741   1.264       .  A
C735        O743   1.258   1_554  A
C735       C3232   1.488       .  S
O736        C744   1.262       .  A
O737        C744   1.262       .  A
C738        O745   1.259       .  A
C738        O739   1.259       .  A
C738       C1287   1.494       .  S
C740        O742   1.258       .  A
C740        O746   1.264       .  A
C740       C1259   1.488       .  S
C744       C1524   1.479       .  S
C747       C1231   1.532       .  S
C747        C748   1.522       .  S
C747        C753   1.536       .  S
C747        C751   1.541       .  S
C748        H755   1.087       .  S
C748        C749   1.355       .  D
C749        C750   1.553       .  S
C749       C4772   1.486       .  S
C750        C754   1.549       .  S
C750        C752   1.552       .  S
C750        H756   1.107       .  S
C751        H757   1.082       .  S
C751        C752   1.369       .  D
C752       C1412   1.490       .  S
C753        H758   1.085       .  S
C753        C754   1.372       .  D
C754       C1468   1.505       .  S
C759       C1244   1.538       .  S
C759        C760   1.541       .  S
C759        C765   1.522       .  S
C759        C763   1.528       .  S
C760        H767   1.079       .  S
C760        C761   1.364       .  D
C761        C762   1.547       .  S
C761       C1300   1.493       .  S
C762        C766   1.570       .  S
C762        C764   1.555       .  S
C762        H768   1.106       .  S
C763        H769   1.086       .  S
C763        C764   1.369       .  D
C764       C1356   1.500       .  S
C765        H770   1.084       .  S
C765        C766   1.370       .  D
C766       C4912   1.521       .  S
In771       O773   2.224       .  S
In771       O774   2.240       .  S
In771       O782   2.271       .  S
In771       O776   2.275       .  S
In771       O778   2.263       .  S
In771       O779   2.246       .  S
In771       O780   2.246       .  S
In771       O783   2.277       .  S
C772        O778   1.262       .  A
C772        O780   1.256       .  A
C772       C1552   1.484       .  S
O773        C781   1.263       .  A
O774        C781   1.263       .  A
C775        O782   1.260       .  A
C775        O776   1.260       .  A
C775       C1203   1.497       .  S
C777        O779   1.257       .  A
C777        O783   1.264       .  A
C777       C3764   1.492       .  S
C781       C1832   1.474       .  S
In784       O786   2.217       .  S
In784       O787   2.250       .  S
In784       O795   2.236       .  S
In784       O789   2.273       .  S
In784       O791   2.230       .  S
In784       O792   2.222       .  S
In784       O793   2.261       .  S
In784       O796   2.266       .  S
C785        O791   1.258       .  A
C785        O793   1.263       .  A
C785       C3988   1.485       .  S
O786        C794   1.260       .  A
O787        C794   1.262       .  A
C788        O795   1.259       .  A
C788        O789   1.264       .  A
C788       C1175   1.492       .  S
C790        O792   1.258       .  A
C790        O796   1.266       .  A
C790       C1623   1.486       .  S
C794       C2840   1.470       .  S
In797       O799   2.276       .  S
In797       O800   2.245       .  S
In797       O808   2.245       .  S
In797       O802   2.288       .  S
In797       O804   2.273       .  S
In797       O805   2.225       .  S
In797       O806   2.231       .  S
In797       O809   2.240       .  S
C798        O804   1.265       .  A
C798        O806   1.258       .  A
C798       C1272   1.487       .  S
O799        C807   1.263       .  A
O800        C807   1.257       .  A
C801        O808   1.258       .  A
C801        O802   1.263       .  A
C801       C1147   1.491       .  S
C803        O805   1.261       .  A
C803        O809   1.263       .  A
C803       C2448   1.481       .  S
C807       C3344   1.488       .  S
In810       O812   2.283       .  S
In810       O813   2.238       .  S
In810       O821   2.265       .  S
In810       O815   2.276       .  S
In810       O817   2.258       .  S
In810       O818   2.235       .  S
In810       O819   2.237       .  S
In810       O822   2.236       .  S
C811        O817   1.265       .  A
C811        O819   1.259       .  A
C811       C3540   1.487       .  S
O812        C820   1.261       .  A
O813        C820   1.256       .  A
C814        O821   1.258       .  A
C814        O815   1.260       .  A
C814       C1132   1.498       .  S
C816        O818   1.261       .  A
C816        O822   1.261       .  A
C816       C1091   1.479       .  S
C820       C1384   1.490       .  S
C823       C1063   1.545       .  S
C823        C824   1.527       .  S
C823        C829   1.536       .  S
C823        C827   1.549       .  S
C824        H831   1.086       .  S
C824        C825   1.366       .  D
C825        C826   1.561       .  S
C825       C5472   1.507       .  S
C826        C830   1.545       .  S
C826        C828   1.545       .  S
C826        H832   1.109       .  S
C827        H833   1.081       .  S
C827        C828   1.371       .  D
C828       C1216   1.497       .  S
C829        H834   1.087       .  S
C829        C830   1.368       .  D
C830       C1119   1.496       .  S
C835       C1160   1.551       .  S
C835        C836   1.544       .  S
C835        C841   1.535       .  S
C835        C839   1.544       .  S
C836        H843   1.084       .  S
C836        C837   1.383       .  D
C837        C838   1.556       .  S
C837       C5360   1.518       .  S
C838        C842   1.541       .  S
C838        C840   1.536       .  S
C838        H844   1.105       .  S
C839        H845   1.085       .  S
C839        C840   1.366       .  D
C840       C1076   1.488       .  S
C841        H846   1.083       .  S
C841        C842   1.355       .  D
C842       C1188   1.480       .  S
In847       O849   2.219       .  S
In847       O850   2.247       .  S
In847       O858   2.262       .  S
In847       O852   2.265       .  S
In847       O854   2.260       .  S
In847       O855   2.243       .  S
In847       O856   2.249       .  S
In847       O859   2.261       .  S
C848        O854   1.260       .  A
C848        O856   1.258       .  A
C848       C3456   1.487       .  S
O849        C857   1.262       .  A
O850        C857   1.262       .  A
C851        O858   1.260       .  A
C851        O852   1.259       .  A
C851       C1035   1.490       .  S
C853        O855   1.259       .  A
C853        O859   1.263       .  A
C853       C1328   1.489       .  S
C857       C1104   1.477       .  S
In860       O862   2.237       .  S
In860       O863   2.242       .  S
In860       O871   2.257       .  S
In860       O865   2.274       .  S
In860       O867   2.264       .  S
In860       O868   2.223       .  S
In860       O869   2.248       .  S
In860       O872   2.284       .  S
C861        O867   1.259       .  A
C861        O869   1.256       .  A
C861       C1440   1.480       .  S
O862        C870   1.262       .  A
O863        C870   1.264       .  A
C864        O871   1.258       .  A
C864        O865   1.260       .  A
C864       C1020   1.489       .  S
C866        O868   1.257       .  A
C866        O872   1.265       .  A
C866       C3624   1.490       .  S
C870       C2952   1.479       .  S
In873       O875   2.260       .  S
In873       O876   2.243       .  S
In873       O884   2.261       .  S
In873       O878   2.269       .  S
In873       O880   2.233       .  S
In873       O881   2.231       .  S
In873       O882   2.260       .  S
In873       O885   2.222       .  S
C874        O880   1.260       .  A
C874        O882   1.266       .  A
C874       C4311   1.489       .  S
O875        C883   1.263       .  A
O876        C883   1.260       .  A
C877        O884   1.259       .  A
C877        O878   1.262       .  A
C877        C979   1.498       .  S
C879        O881   1.263       .  A
C879        O885   1.260       .  A
C879       C1748   1.472       .  S
C883       C2112   1.488       .  S
In886       O888   2.252       .  S
In886       O889   2.245       .  S
In886       O897   2.249       .  S
In886       O891   2.264       .  S
In886       O893   2.261       .  S
In886       O894   2.230       .  S
In886       O895   2.238       .  S
In886       O898   2.238       .  S
C887        O893   1.264       .  A
C887        O895   1.261       .  A
C887       C2224   1.491       .  S
O888        C896   1.263       .  A
O889        C896   1.260       .  A
C890        O897   1.259       .  A
C890        O891   1.259       .  A
C890        C951   1.485       .  S
C892        O894   1.261       .  A
C892        O898   1.260       .  A
C892       C2603   1.479       .  S
C896       C4548   1.483       .  S
C899        C923   1.533       .  S
C899        C900   1.549       .  S
C899        C905   1.521       .  S
C899        C903   1.529       .  S
C900        H907   1.080       .  S
C900        C901   1.373       .  D
C901        C902   1.551       .  S
C901       C1007   1.504       .  S
C902        C906   1.560       .  S
C902        C904   1.550       .  S
C902        H908   1.109       .  S
C903        H909   1.087       .  S
C903        C904   1.362       .  D
C904        C964   1.491       .  S
C905        H910   1.087       .  S
C905        C906   1.362       .  D
C906       C5164   1.500       .  S
C911        C936   1.529       .  S
C911        C912   1.547       .  S
C911        C917   1.518       .  S
C911        C915   1.530       .  S
C912        H919   1.081       .  S
C912        C913   1.374       .  D
C913        C914   1.553       .  S
C913       C1048   1.502       .  S
C914        C918   1.564       .  S
C914        C916   1.553       .  S
C914        H920   1.110       .  S
C915        H921   1.087       .  S
C915        C916   1.362       .  D
C916        C992   1.499       .  S
C917        H922   1.088       .  S
C917        C918   1.355       .  D
C918       C5444   1.492       .  S
C923        C924   1.420       .  A
C923        C928   1.412       .  A
C924        C925   1.398       .  A
C924        N929   1.433       .  S
C925        C926   1.396       .  A
C925        H930   1.084       .  S
C926        C931   1.475       .  S
C926        C927   1.407       .  A
C927        C928   1.405       .  A
C927        N932   1.439       .  S
C928        H933   1.075       .  S
N929        H949   1.045       .  S
N929        H950   1.046       .  S
C931        C934   1.394       .  A
C931        C938   1.408       .  A
N932        H947   1.045       .  S
N932        H948   1.046       .  S
C934        C935   1.395       .  A
C934        H939   1.084       .  S
C935        C936   1.420       .  A
C935        N940   1.434       .  S
C936        C937   1.411       .  A
C937        C938   1.407       .  A
C937        H941   1.076       .  S
C938        N942   1.438       .  S
N940        H943   1.046       .  S
N940        H944   1.045       .  S
N942        H945   1.046       .  S
N942        H946   1.046       .  S
C951        C952   1.416       .  A
C951        C956   1.405       .  A
C952        C953   1.407       .  A
C952        N957   1.438       .  S
C953        C954   1.400       .  A
C953        H958   1.084       .  S
C954        C959   1.487       .  S
C954        C955   1.412       .  A
C955        C956   1.409       .  A
C955        N960   1.438       .  S
C956        H961   1.084       .  S
N957        H977   1.046       .  S
N957        H978   1.045       .  S
C959        C962   1.398       .  A
C959        C966   1.414       .  A
N960        H975   1.046       .  S
N960        H976   1.045       .  S
C962        C963   1.401       .  A
C962        H967   1.084       .  S
C963        C964   1.419       .  A
C963        N968   1.439       .  S
C964        C965   1.402       .  A
C965        C966   1.412       .  A
C965        H969   1.084       .  S
C966        N970   1.437       .  S
N968        H971   1.046       .  S
N968        H972   1.045       .  S
N970        H973   1.046       .  S
N970        H974   1.045       .  S
C979        C980   1.419       .  A
C979        C984   1.407       .  A
C980        C981   1.411       .  A
C980        N985   1.438       .  S
C981        C982   1.402       .  A
C981        H986   1.084       .  S
C982        C987   1.496       .  S
C982        C983   1.413       .  A
C983        C984   1.411       .  A
C983        N988   1.438       .  S
C984        H989   1.083       .  S
N985       H1005   1.045       .  S
N985       H1006   1.046       .  S
C987        C990   1.399       .  A
C987        C994   1.416       .  A
N988       H1003   1.046       .  S
N988       H1004   1.045       .  S
C990        C991   1.404       .  A
C990        H995   1.084       .  S
C991        C992   1.421       .  A
C991        N996   1.439       .  S
C992        C993   1.403       .  A
C993        C994   1.415       .  A
C993        H997   1.083       .  S
C994        N998   1.437       .  S
N996        H999   1.045       .  S
N996       H1000   1.046       .  S
N998       H1001   1.046       .  S
N998       H1002   1.045       .  S
C1007      C1008   1.415       .  A
C1007      C1012   1.410       .  A
C1008      C1009   1.406       .  A
C1008      N1013   1.429       .  S
C1009      C1010   1.401       .  A
C1009      H1014   1.084       .  S
C1010      C1015   1.491       .  S
C1010      C1011   1.410       .  A
C1011      C1012   1.410       .  A
C1011      N1016   1.437       .  S
C1012      H1017   1.083       .  S
N1013      H1033   1.046       .  S
N1013      H1034   1.045       .  S
C1015      C1018   1.405       .  A
C1015      C1022   1.409       .  A
N1016      H1031   1.045       .  S
N1016      H1032   1.046       .  S
C1018      C1019   1.411       .  A
C1018      H1023   1.084       .  S
C1019      C1020   1.413       .  A
C1019      N1024   1.437       .  S
C1020      C1021   1.407       .  A
C1021      C1022   1.408       .  A
C1021      H1025   1.084       .  S
C1022      N1026   1.438       .  S
N1024      H1027   1.046       .  S
N1024      H1028   1.046       .  S
N1026      H1029   1.045       .  S
N1026      H1030   1.046       .  S
C1035      C1036   1.414       .  A
C1035      C1040   1.406       .  A
C1036      C1037   1.411       .  A
C1036      N1041   1.437       .  S
C1037      C1038   1.407       .  A
C1037      H1042   1.084       .  S
C1038      C1043   1.496       .  S
C1038      C1039   1.411       .  A
C1039      C1040   1.409       .  A
C1039      N1044   1.438       .  S
C1040      H1045   1.083       .  S
N1041      H1061   1.046       .  S
N1041      H1062   1.046       .  S
C1043      C1046   1.403       .  A
C1043      C1050   1.412       .  A
N1044      H1059   1.046       .  S
N1044      H1060   1.046       .  S
C1046      C1047   1.407       .  A
C1046      H1051   1.084       .  S
C1047      C1048   1.414       .  A
C1047      N1052   1.429       .  S
C1048      C1049   1.408       .  A
C1049      C1050   1.411       .  A
C1049      H1053   1.083       .  S
C1050      N1054   1.437       .  S
N1052      H1055   1.046       .  S
N1052      H1056   1.045       .  S
N1054      H1057   1.045       .  S
N1054      H1058   1.046       .  S
C1063      C1064   1.420       .  A
C1063      C1068   1.413       .  A
C1064      C1065   1.405       .  A
C1064      N1069   1.433       .  S
C1065      C1066   1.401       .  A
C1065      H1070   1.084       .  S
C1066      C1071   1.496       .  S
C1066      C1067   1.412       .  A
C1067      C1068   1.411       .  A
C1067      N1072   1.438       .  S
C1068      H1073   1.075       .  S
N1069      H1089   1.046       .  S
N1069      H1090   1.046       .  S
C1071      C1074   1.405       .  A
C1071      C1078   1.415       .  A
N1072      H1087   1.045       .  S
N1072      H1088   1.046       .  S
C1074      C1075   1.407       .  A
C1074      H1079   1.083       .  S
C1075      C1076   1.411       .  A
C1075      N1080   1.438       .  S
C1076      C1077   1.403       .  A
C1077      C1078   1.411       .  A
C1077      H1081   1.083       .  S
C1078      N1082   1.437       .  S
N1080      H1083   1.045       .  S
N1080      H1084   1.046       .  S
N1082      H1085   1.046       .  S
N1082      H1086   1.045       .  S
C1091      C1092   1.414       .  A
C1091      C1096   1.406       .  A
C1092      C1093   1.402       .  A
C1092      N1097   1.438       .  S
C1093      C1094   1.403       .  A
C1093      H1098   1.084       .  S
C1094      C1099   1.483       .  S
C1094      C1095   1.409       .  A
C1095      C1096   1.404       .  A
C1095      N1100   1.438       .  S
C1096      H1101   1.083       .  S
N1097      H1117   1.046       .  S
N1097      H1118   1.046       .  S
C1099      C1102   1.404       .  A
C1099      C1106   1.409       .  A
N1100      H1115   1.046       .  S
N1100      H1116   1.046       .  S
C1102      C1103   1.407       .  A
C1102      H1107   1.083       .  S
C1103      C1104   1.414       .  A
C1103      N1108   1.438       .  S
C1104      C1105   1.403       .  A
C1105      C1106   1.399       .  A
C1105      H1109   1.084       .  S
C1106      N1110   1.438       .  S
N1108      H1111   1.046       .  S
N1108      H1112   1.046       .  S
N1110      H1113   1.046       .  S
N1110      H1114   1.046       .  S
C1119      C1120   1.412       .  A
C1119      C1124   1.406       .  A
C1120      C1121   1.416       .  A
C1120      N1125   1.437       .  S
C1121      C1122   1.409       .  A
C1121      H1126   1.083       .  S
C1122      C1127   1.495       .  S
C1122      C1123   1.409       .  A
C1123      C1124   1.403       .  A
C1123      N1128   1.438       .  S
C1124      H1129   1.083       .  S
N1125      H1145   1.045       .  S
N1125      H1146   1.046       .  S
C1127      C1130   1.405       .  A
C1127      C1134   1.409       .  A
N1128      H1143   1.045       .  S
N1128      H1144   1.046       .  S
C1130      C1131   1.410       .  A
C1130      H1135   1.084       .  S
C1131      C1132   1.417       .  A
C1131      N1136   1.438       .  S
C1132      C1133   1.410       .  A
C1133      C1134   1.411       .  A
C1133      H1137   1.083       .  S
C1134      N1138   1.438       .  S
N1136      H1139   1.046       .  S
N1136      H1140   1.045       .  S
N1138      H1141   1.045       .  S
N1138      H1142   1.046       .  S
C1147      C1148   1.414       .  A
C1147      C1152   1.407       .  A
C1148      C1149   1.415       .  A
C1148      N1153   1.437       .  S
C1149      C1150   1.407       .  A
C1149      H1154   1.084       .  S
C1150      C1155   1.494       .  S
C1150      C1151   1.407       .  A
C1151      C1152   1.404       .  A
C1151      N1156   1.432       .  S
C1152      H1157   1.084       .  S
N1153      H1173   1.045       .  S
N1153      H1174   1.046       .  S
C1155      C1158   1.404       .  A
C1155      C1162   1.405       .  A
N1156      H1171   1.046       .  S
N1156      H1172   1.046       .  S
C1158      C1159   1.415       .  A
C1158      H1163   1.083       .  S
C1159      C1160   1.420       .  A
C1159      N1164   1.437       .  S
C1160      C1161   1.415       .  A
C1161      C1162   1.403       .  A
C1161      H1165   1.079       .  S
C1162      N1166   1.433       .  S
N1164      H1167   1.045       .  S
N1164      H1168   1.045       .  S
N1166      H1169   1.046       .  S
N1166      H1170   1.046       .  S
C1175      C1176   1.416       .  A
C1175      C1180   1.408       .  A
C1176      C1177   1.412       .  A
C1176      N1181   1.437       .  S
C1177      C1178   1.406       .  A
C1177      H1182   1.084       .  S
C1178      C1183   1.490       .  S
C1178      C1179   1.407       .  A
C1179      C1180   1.405       .  A
C1179      N1184   1.438       .  S
C1180      H1185   1.083       .  S
N1181      H1201   1.045       .  S
N1181      H1202   1.046       .  S
C1183      C1186   1.404       .  A
C1183      C1190   1.411       .  A
N1184      H1199   1.045       .  S
N1184      H1200   1.046       .  S
C1186      C1187   1.406       .  A
C1186      H1191   1.084       .  S
C1187      C1188   1.409       .  A
C1187      N1192   1.437       .  S
C1188      C1189   1.404       .  A
C1189      C1190   1.410       .  A
C1189      H1193   1.083       .  S
C1190      N1194   1.437       .  S
N1192      H1195   1.045       .  S
N1192      H1196   1.045       .  S
N1194      H1197   1.046       .  S
N1194      H1198   1.045       .  S
C1203      C1204   1.417       .  A
C1203      C1208   1.407       .  A
C1204      C1205   1.412       .  A
C1204      N1209   1.438       .  S
C1205      C1206   1.404       .  A
C1205      H1210   1.083       .  S
C1206      C1211   1.501       .  S
C1206      C1207   1.414       .  A
C1207      C1208   1.412       .  A
C1207      N1212   1.438       .  S
C1208      H1213   1.083       .  S
N1209      H1229   1.046       .  S
N1209      H1230   1.046       .  S
C1211      C1214   1.407       .  A
C1211      C1218   1.415       .  A
N1212      H1227   1.046       .  S
N1212      H1228   1.045       .  S
C1214      C1215   1.410       .  A
C1214      H1219   1.083       .  S
C1215      C1216   1.411       .  A
C1215      N1220   1.437       .  S
C1216      C1217   1.406       .  A
C1217      C1218   1.411       .  A
C1217      H1221   1.081       .  S
C1218      N1222   1.438       .  S
N1220      H1223   1.046       .  S
N1220      H1224   1.046       .  S
N1222      H1225   1.046       .  S
N1222      H1226   1.045       .  S
C1231      C1232   1.419       .  A
C1231      C1236   1.412       .  A
C1232      C1233   1.397       .  A
C1232      N1237   1.434       .  S
C1233      C1234   1.398       .  A
C1233      H1238   1.084   1_455  S
C1234      C1239   1.480   1_455  S
C1234      C1235   1.407       .  A
C1235      C1236   1.408       .  A
C1235      N1240   1.438   1_554  S
C1236      H1241   1.076       .  S
N1237      H1257   1.045       .  S
N1237      H1258   1.046       .  S
C1239      C1242   1.399   1_554  A
C1239      C1246   1.406       .  A
N1240      H1255   1.045       .  S
N1240      H1256   1.046       .  S
C1242      C1243   1.403       .  A
C1242      H1247   1.084   1_655  S
C1243      C1244   1.420       .  A
C1243      N1248   1.433       .  S
C1244      C1245   1.412       .  A
C1245      C1246   1.402   1_556  A
C1245      H1249   1.073       .  S
C1246      N1250   1.439       .  S
N1248      H1251   1.046       .  S
N1248      H1252   1.046       .  S
N1250      H1253   1.046       .  S
N1250      H1254   1.045       .  S
C1259      C1260   1.418       .  A
C1259      C1264   1.405       .  A
C1260      C1261   1.405       .  A
C1260      N1265   1.438       .  S
C1261      C1262   1.402       .  A
C1261      H1266   1.084       .  S
C1262      C1267   1.491       .  S
C1262      C1263   1.413       .  A
C1263      C1264   1.407       .  A
C1263      N1268   1.438       .  S
C1264      H1269   1.083       .  S
N1265      H1285   1.046       .  S
N1265      H1286   1.046       .  S
C1267      C1270   1.401       .  A
C1267      C1274   1.414       .  A
N1268      H1283   1.046       .  S
N1268      H1284   1.045       .  S
C1270      C1271   1.405       .  A
C1270      H1275   1.084       .  S
C1271      C1272   1.417       .  A
C1271      N1276   1.438       .  S
C1272      C1273   1.404       .  A
C1273      C1274   1.409       .  A
C1273      H1277   1.083       .  S
C1274      N1278   1.438       .  S
N1276      H1279   1.046       .  S
N1276      H1280   1.046       .  S
N1278      H1281   1.046       .  S
N1278      H1282   1.045       .  S
C1287      C1288   1.418       .  A
C1287      C1292   1.408       .  A
C1288      C1289   1.410       .  A
C1288      N1293   1.438       .  S
C1289      C1290   1.404       .  A
C1289      H1294   1.084       .  S
C1290      C1295   1.490       .  S
C1290      C1291   1.408       .  A
C1291      C1292   1.408       .  A
C1291      N1296   1.438       .  S
C1292      H1297   1.083       .  S
N1293      H1313   1.045       .  S
N1293      H1314   1.046       .  S
C1295      C1298   1.408       .  A
C1295      C1302   1.408       .  A
N1296      H1311   1.046   1_556  S
N1296      H1312   1.045   1_556  S
C1298      C1299   1.411       .  A
C1298      H1303   1.083       .  S
C1299      C1300   1.406       .  A
C1299      N1304   1.431       .  S
C1300      C1301   1.408       .  A
C1301      C1302   1.403       .  A
C1301      H1305   1.084       .  S
C1302      N1306   1.438       .  S
N1304      H1307   1.046       .  S
N1304      H1308   1.045       .  S
N1306      H1309   1.046       .  S
N1306      H1310   1.046       .  S
C1315      C1316   1.415   1_655  A
C1315      C1320   1.407   1_655  A
C1316      C1317   1.407       .  A
C1316      N1321   1.438   1_455  S
C1317      C1318   1.402       .  A
C1317      H1322   1.084       .  S
C1318      C1323   1.486       .  S
C1318      C1319   1.409       .  A
C1319      C1320   1.407       .  A
C1319      N1324   1.438       .  S
C1320      H1325   1.083   1_455  S
N1321      H1341   1.046       .  S
N1321      H1342   1.045   1_655  S
C1323      C1326   1.403       .  A
C1323      C1330   1.409       .  A
N1324      H1339   1.046       .  S
N1324      H1340   1.046       .  S
C1326      C1327   1.408       .  A
C1326      H1331   1.084       .  S
C1327      C1328   1.415       .  A
C1327      N1332   1.437       .  S
C1328      C1329   1.408       .  A
C1329      C1330   1.407       .  A
C1329      H1333   1.083       .  S
C1330      N1334   1.438       .  S
N1332      H1335   1.046       .  S
N1332      H1336   1.046       .  S
N1334      H1337   1.046       .  S
N1334      H1338   1.046       .  S
C1343      C1344   1.415       .  A
C1343      C1348   1.403       .  A
C1344      C1345   1.405       .  A
C1344      N1349   1.439       .  S
C1345      C1346   1.403       .  A
C1345      H1350   1.084       .  S
C1346      C1351   1.496       .  S
C1346      C1347   1.415       .  A
C1347      C1348   1.412       .  A
C1347      N1352   1.437       .  S
C1348      H1353   1.084       .  S
N1349      H1369   1.046       .  S
N1349      H1370   1.046       .  S
C1351      C1354   1.406       .  A
C1351      C1358   1.412       .  A
N1352      H1367   1.046       .  S
N1352      H1368   1.045       .  S
C1354      C1355   1.410       .  A
C1354      H1359   1.084       .  S
C1355      C1356   1.413       .  A
C1355      N1360   1.430       .  S
C1356      C1357   1.407       .  A
C1357      C1358   1.405       .  A
C1357      H1361   1.084       .  S
C1358      N1362   1.438       .  S
N1360      H1363   1.045       .  S
N1360      H1364   1.046       .  S
N1362      H1365   1.046       .  S
N1362      H1366   1.045       .  S
C1371      C1372   1.415       .  A
C1371      C1376   1.407       .  A
C1372      C1373   1.411       .  A
C1372      N1377   1.437       .  S
C1373      C1374   1.405       .  A
C1373      H1378   1.084       .  S
C1374      C1379   1.490       .  S
C1374      C1375   1.409       .  A
C1375      C1376   1.406       .  A
C1375      N1380   1.438       .  S
C1376      H1381   1.084       .  S
N1377      H1397   1.045       .  S
N1377      H1398   1.046       .  S
C1379      C1382   1.401       .  A
C1379      C1386   1.411       .  A
N1380      H1395   1.046       .  S
N1380      H1396   1.045       .  S
C1382      C1383   1.406       .  A
C1382      H1387   1.084       .  S
C1383      C1384   1.415       .  A
C1383      N1388   1.438       .  S
C1384      C1385   1.407       .  A
C1385      C1386   1.411       .  A
C1385      H1389   1.083       .  S
C1386      N1390   1.437       .  S
N1388      H1391   1.046       .  S
N1388      H1392   1.046       .  S
N1390      H1393   1.045       .  S
N1390      H1394   1.046       .  S
C1399      C1400   1.418       .  A
C1399      C1404   1.408       .  A
C1400      C1401   1.409       .  A
C1400      N1405   1.438       .  S
C1401      C1402   1.401       .  A
C1401      H1406   1.084       .  S
C1402      C1407   1.491       .  S
C1402      C1403   1.410       .  A
C1403      C1404   1.411       .  A
C1403      N1408   1.437       .  S
C1404      H1409   1.083       .  S
N1405      H1425   1.046       .  S
N1405      H1426   1.046       .  S
C1407      C1410   1.401       .  A
C1407      C1414   1.414       .  A
N1408      H1423   1.045       .  S
N1408      H1424   1.046       .  S
C1410      C1411   1.403       .  A
C1410      H1415   1.084       .  S
C1411      C1412   1.413       .  A
C1411      N1416   1.433       .  S
C1412      C1413   1.402       .  A
C1413      C1414   1.414       .  A
C1413      H1417   1.083       .  S
C1414      N1418   1.437       .  S
N1416      H1419   1.045       .  S
N1416      H1420   1.045       .  S
N1418      H1421   1.046       .  S
N1418      H1422   1.046       .  S
C1427      C1428   1.415       .  A
C1427      C1432   1.406       .  A
C1428      C1429   1.408       .  A
C1428      N1433   1.438       .  S
C1429      C1430   1.403       .  A
C1429      H1434   1.084       .  S
C1430      C1435   1.483       .  S
C1430      C1431   1.408       .  A
C1431      C1432   1.402       .  A
C1431      N1436   1.438       .  S
C1432      H1437   1.083       .  S
N1433      H1453   1.045       .  S
N1433      H1454   1.046       .  S
C1435      C1438   1.402       .  A
C1435      C1442   1.410       .  A
N1436      H1451   1.046       .  S
N1436      H1452   1.046       .  S
C1438      C1439   1.405       .  A
C1438      H1443   1.084       .  S
C1439      C1440   1.413       .  A
C1439      N1444   1.438       .  S
C1440      C1441   1.405       .  A
C1441      C1442   1.406       .  A
C1441      H1445   1.084       .  S
C1442      N1446   1.438       .  S
N1444      H1447   1.046       .  S
N1444      H1448   1.046       .  S
N1446      H1449   1.046       .  S
N1446      H1450   1.046       .  S
C1455      C1456   1.415       .  A
C1455      C1460   1.405       .  A
C1456      C1457   1.404       .  A
C1456      N1461   1.438       .  S
C1457      C1458   1.403       .  A
C1457      H1462   1.083       .  S
C1458      C1463   1.495       .  S
C1458      C1459   1.415       .  A
C1459      C1460   1.410       .  A
C1459      N1464   1.438       .  S
C1460      H1465   1.084       .  S
N1461      H1481   1.045       .  S
N1461      H1482   1.046       .  S
C1463      C1466   1.404       .  A
C1463      C1470   1.412       .  A
N1464      H1479   1.046       .  S
N1464      H1480   1.045       .  S
C1466      C1467   1.407       .  A
C1466      H1471   1.084       .  S
C1467      C1468   1.417       .  A
C1467      N1472   1.430       .  S
C1468      C1469   1.409       .  A
C1469      C1470   1.404       .  A
C1469      H1473   1.082       .  S
C1470      N1474   1.439       .  S
N1472      H1475   1.045       .  S
N1472      H1476   1.045       .  S
N1474      H1477   1.046       .  S
N1474      H1478   1.045       .  S
C1483      C1484   1.419       .  A
C1483      C1488   1.412       .  A
C1484      C1485   1.397       .  A
C1484      N1489   1.434       .  S
C1485      C1486   1.395   1_556  A
C1485      H1490   1.084   1_565  S
C1486      C1491   1.475       .  S
C1486      C1487   1.406       .  A
C1487      C1488   1.408   1_554  A
C1487      N1492   1.438       .  S
C1488      H1493   1.077       .  S
N1489      H1509   1.046       .  S
N1489      H1510   1.046       .  S
C1491      C1494   1.396   1_565  A
C1491      C1498   1.404   1_565  A
N1492      H1507   1.046       .  S
N1492      H1508   1.046       .  S
C1494      C1495   1.403       .  A
C1494      H1499   1.084       .  S
C1495      C1496   1.421       .  A
C1495      N1500   1.433       .  S
C1496      C1497   1.413       .  A
C1497      C1498   1.403       .  A
C1497      H1501   1.073       .  S
C1498      N1502   1.439   1_545  S
N1500      H1503   1.046       .  S
N1500      H1504   1.045       .  S
N1502      H1505   1.045       .  S
N1502      H1506   1.046       .  S
C1511      C1512   1.415       .  A
C1511      C1516   1.405       .  A
C1512      C1513   1.404       .  A
C1512      N1517   1.438       .  S
C1513      C1514   1.399       .  A
C1513      H1518   1.084       .  S
C1514      C1519   1.471       .  S
C1514      C1515   1.406       .  A
C1515      C1516   1.402       .  A
C1515      N1520   1.438       .  S
C1516      H1521   1.084       .  S
N1517      H1537   1.046       .  S
N1517      H1538   1.045       .  S
C1519      C1522   1.399       .  A
C1519      C1526   1.406       .  A
N1520      H1535   1.045       .  S
N1520      H1536   1.046       .  S
C1522      C1523   1.407       .  A
C1522      H1527   1.084       .  S
C1523      C1524   1.416       .  A
C1523      N1528   1.437       .  S
C1524      C1525   1.405       .  A
C1525      C1526   1.399       .  A
C1525      H1529   1.083       .  S
C1526      N1530   1.439       .  S
N1528      H1531   1.046       .  S
N1528      H1532   1.046       .  S
N1530      H1533   1.046   1_556  S
N1530      H1534   1.045       .  S
C1539      C1540   1.415       .  A
C1539      C1544   1.407       .  A
C1540      C1541   1.406       .  A
C1540      N1545   1.438       .  S
C1541      C1542   1.403       .  A
C1541      H1546   1.084       .  S
C1542      C1547   1.487       .  S
C1542      C1543   1.410       .  A
C1543      C1544   1.406       .  A
C1543      N1548   1.438       .  S
C1544      H1549   1.083       .  S
N1545      H1565   1.045       .  S
N1545      H1566   1.046       .  S
C1547      C1550   1.402       .  A
C1547      C1554   1.411       .  A
N1548      H1563   1.046       .  S
N1548      H1564   1.046       .  S
C1550      C1551   1.407       .  A
C1550      H1555   1.084       .  S
C1551      C1552   1.416       .  A
C1551      N1556   1.438       .  S
C1552      C1553   1.404       .  A
C1553      C1554   1.405       .  A
C1553      H1557   1.083       .  S
C1554      N1558   1.438       .  S
N1556      H1559   1.046       .  S
N1556      H1560   1.046       .  S
N1558      H1561   1.046       .  S
N1558      H1562   1.045       .  S
C1567      C1568   1.413       .  A
C1567      C1572   1.406       .  A
C1568      C1569   1.410       .  A
C1568      N1573   1.437       .  S
C1569      C1570   1.407       .  A
C1569      H1574   1.084       .  S
C1570      C1575   1.493       .  S
C1570      C1571   1.409       .  A
C1571      C1572   1.404       .  A
C1571      N1576   1.432       .  S
C1572      H1577   1.084       .  S
N1573      H1593   1.046       .  S
N1573      H1594   1.045       .  S
C1575      C1578   1.405       .  A
C1575      C1582   1.409       .  A
N1576      H1591   1.046       .  S
N1576      H1592   1.046       .  S
C1578      C1579   1.409       .  A
C1578      H1583   1.084       .  S
C1579      C1580   1.414       .  A
C1579      N1584   1.437       .  S
C1580      C1581   1.406       .  A
C1581      C1582   1.407       .  A
C1581      H1585   1.080       .  S
C1582      N1586   1.433       .  S
N1584      H1587   1.045       .  S
N1584      H1588   1.046       .  S
N1586      H1589   1.046       .  S
N1586      H1590   1.045       .  S
C1595      C1596   1.418       .  A
C1595      C1600   1.408       .  A
C1596      C1597   1.408       .  A
C1596      N1601   1.438       .  S
C1597      C1598   1.401       .  A
C1597      H1602   1.084       .  S
C1598      C1603   1.491       .  S
C1598      C1599   1.412       .  A
C1599      C1600   1.409       .  A
C1599      N1604   1.438       .  S
C1600      H1605   1.083       .  S
N1601      H1621   1.046       .  S
N1601      H1622   1.046       .  S
C1603      C1606   1.399       .  A
C1603      C1610   1.415       .  A
N1604      H1619   1.046       .  S
N1604      H1620   1.046       .  S
C1606      C1607   1.403       .  A
C1606      H1611   1.084       .  S
C1607      C1608   1.419       .  A
C1607      N1612   1.439       .  S
C1608      C1609   1.403       .  A
C1609      C1610   1.413       .  A
C1609      H1613   1.084       .  S
C1610      N1614   1.437       .  S
N1612      H1615   1.045       .  S
N1612      H1616   1.044       .  S
N1614      H1617   1.046       .  S
N1614      H1618   1.045       .  S
C1623      C1624   1.413       .  A
C1623      C1628   1.407       .  A
C1624      C1625   1.409       .  A
C1624      N1629   1.437       .  S
C1625      C1626   1.406       .  A
C1625      H1630   1.083       .  S
C1626      C1631   1.489       .  S
C1626      C1627   1.409       .  A
C1627      C1628   1.403       .  A
C1627      N1632   1.438       .  S
C1628      H1633   1.083       .  S
N1629      H1649   1.046       .  S
N1629      H1650   1.045       .  S
C1631      C1634   1.404       .  A
C1631      C1638   1.409       .  A
N1632      H1647   1.045       .  S
N1632      H1648   1.046       .  S
C1634      C1635   1.407       .  A
C1634      H1639   1.084       .  S
C1635      C1636   1.413       .  A
C1635      N1640   1.437       .  S
C1636      C1637   1.408       .  A
C1637      C1638   1.406       .  A
C1637      H1641   1.083       .  S
C1638      N1642   1.438       .  S
N1640      H1643   1.046       .  S
N1640      H1644   1.045       .  S
N1642      H1645   1.046       .  S
N1642      H1646   1.046       .  S
C1651      C1652   1.413       .  A
C1651      C1656   1.407       .  A
C1652      C1653   1.414       .  A
C1652      N1657   1.437       .  S
C1653      C1654   1.408       .  A
C1653      H1658   1.084       .  S
C1654      C1659   1.497       .  S
C1654      C1655   1.410       .  A
C1655      C1656   1.408       .  A
C1655      N1660   1.438       .  S
C1656      H1661   1.084       .  S
N1657      H1677   1.045       .  S
N1657      H1678   1.046       .  S
C1659      C1662   1.406       .  A
C1659      C1666   1.412       .  A
N1660      H1675   1.046       .  S
N1660      H1676   1.046       .  S
C1662      C1663   1.411       .  A
C1662      H1667   1.084       .  S
C1663      C1664   1.414       .  A
C1663      N1668   1.438       .  S
C1664      C1665   1.405       .  A
C1665      C1666   1.411       .  A
C1665      H1669   1.083       .  S
C1666      N1670   1.437       .  S
N1668      H1671   1.046       .  S
N1668      H1672   1.046       .  S
N1670      H1673   1.045       .  S
N1670      H1674   1.046       .  S
C1679      C1680   1.406       .  A
C1679      C1684   1.406       .  A
C1680      C1681   1.411       .  A
C1680      N1685   1.431       .  S
C1681      C1682   1.407       .  A
C1681      H1686   1.084       .  S
C1682      C1687   1.487       .  S
C1682      C1683   1.408       .  A
C1683      C1684   1.406       .  A
C1683      N1688   1.438       .  S
C1684      H1689   1.084       .  S
N1685      H1705   1.045       .  S
N1685      H1706   1.045       .  S
C1687      C1690   1.402       .  A
C1687      C1694   1.408       .  A
N1688      H1703   1.046       .  S
N1688      H1704   1.046       .  S
C1690      C1691   1.410       .  A
C1690      H1695   1.084       .  S
C1691      C1692   1.418       .  A
C1691      N1696   1.437       .  S
C1692      C1693   1.408       .  A
C1693      C1694   1.408       .  A
C1693      H1697   1.083       .  S
C1694      N1698   1.438       .  S
N1696      H1699   1.046       .  S
N1696      H1700   1.045       .  S
N1698      H1701   1.046   1_545  S
N1698      H1702   1.045       .  S
C1707      C1708   1.416       .  A
C1707      C1712   1.408       .  A
C1708      C1709   1.404       .  A
C1708      N1713   1.431       .  S
C1709      C1710   1.402       .  A
C1709      H1714   1.084       .  S
C1710      C1715   1.488       .  S
C1710      C1711   1.410       .  A
C1711      C1712   1.404       .  A
C1711      N1716   1.438       .  S
C1712      H1717   1.082       .  S
N1713      H1733   1.046       .  S
N1713      H1734   1.046       .  S
C1715      C1718   1.398       .  A
C1715      C1722   1.407       .  A
N1716      H1731   1.045       .  S
N1716      H1732   1.046       .  S
C1718      C1719   1.395       .  A
C1718      H1723   1.084       .  S
C1719      C1720   1.431       .  A
C1719      N1724   1.436       .  S
C1720      C1721   1.415       .  A
C1721      C1722   1.408       .  A
C1721      H1725   1.074       .  S
C1722      N1726   1.438       .  S
N1724      H1727   1.044       .  S
N1724      H1728   1.039       .  S
N1726      H1729   1.045       .  S
N1726      H1730   1.046       .  S
C1735      C1736   1.412       .  A
C1735      C1740   1.405       .  A
C1736      C1737   1.401       .  A
C1736      N1741   1.438       .  S
C1737      C1738   1.402       .  A
C1737      H1742   1.084       .  S
C1738      C1743   1.475       .  S
C1738      C1739   1.408       .  A
C1739      C1740   1.400       .  A
C1739      N1744   1.438       .  S
C1740      H1745   1.084       .  S
N1741      H1761   1.046       .  S
N1741      H1762   1.046       .  S
C1743      C1746   1.401       .  A
C1743      C1750   1.409       .  A
N1744      H1759   1.046       .  S
N1744      H1760   1.045       .  S
C1746      C1747   1.401       .  A
C1746      H1751   1.084       .  S
C1747      C1748   1.414       .  A
C1747      N1752   1.438       .  S
C1748      C1749   1.403       .  A
C1749      C1750   1.401       .  A
C1749      H1753   1.084       .  S
C1750      N1754   1.438       .  S
N1752      H1755   1.046       .  S
N1752      H1756   1.046       .  S
N1754      H1757   1.046       .  S
N1754      H1758   1.046       .  S
C1763      C1764   1.416       .  A
C1763      C1768   1.409       .  A
C1764      C1765   1.404       .  A
C1764      N1769   1.430       .  S
C1765      C1766   1.401       .  A
C1765      H1770   1.084       .  S
C1766      C1771   1.490       .  S
C1766      C1767   1.410       .  A
C1767      C1768   1.409       .  A
C1767      N1772   1.437       .  S
C1768      H1773   1.083       .  S
N1769      H1789   1.046       .  S
N1769      H1790   1.045       .  S
C1771      C1774   1.405       .  A
C1771      C1778   1.409       .  A
N1772      H1787   1.046       .  S
N1772      H1788   1.046       .  S
C1774      C1775   1.410       .  A
C1774      H1779   1.084       .  S
C1775      C1776   1.414       .  A
C1775      N1780   1.437       .  S
C1776      C1777   1.407       .  A
C1777      C1778   1.407       .  A
C1777      H1781   1.083       .  S
C1778      N1782   1.438       .  S
N1780      H1783   1.046       .  S
N1780      H1784   1.046       .  S
N1782      H1785   1.045       .  S
N1782      H1786   1.046       .  S
C1791      C1792   1.419       .  A
C1791      C1796   1.406       .  A
C1792      C1793   1.410       .  A
C1792      N1797   1.438       .  S
C1793      C1794   1.402       .  A
C1793      H1798   1.084       .  S
C1794      C1799   1.491       .  S
C1794      C1795   1.410       .  A
C1795      C1796   1.408       .  A
C1795      N1800   1.438       .  S
C1796      H1801   1.083       .  S
N1797      H1817   1.045       .  S
N1797      H1818   1.046       .  S
C1799      C1802   1.398       .  A
C1799      C1806   1.410       .  A
N1800      H1815   1.045       .  S
N1800      H1816   1.046       .  S
C1802      C1803   1.402       .  A
C1802      H1807   1.084       .  S
C1803      C1804   1.421       .  A
C1803      N1808   1.434       .  S
C1804      C1805   1.412       .  A
C1805      C1806   1.414       .  A
C1805      H1809   1.077       .  S
C1806      N1810   1.437       .  S
N1808      H1811   1.046       .  S
N1808      H1812   1.046       .  S
N1810      H1813   1.045       .  S
N1810      H1814   1.046       .  S
C1819      C1820   1.414       .  A
C1819      C1824   1.403       .  A
C1820      C1821   1.406       .  A
C1820      N1825   1.438       .  S
C1821      C1822   1.401       .  A
C1821      H1826   1.084       .  S
C1822      C1827   1.476       .  S
C1822      C1823   1.408       .  A
C1823      C1824   1.400       .  A
C1823      N1828   1.438       .  S
C1824      H1829   1.084       .  S
N1825      H1845   1.046       .  S
N1825      H1846   1.046       .  S
C1827      C1830   1.400       .  A
C1827      C1834   1.409       .  A
N1828      H1843   1.046       .  S
N1828      H1844   1.046       .  S
C1830      C1831   1.398       .  A
C1830      H1835   1.084       .  S
C1831      C1832   1.409       .  A
C1831      N1836   1.432       .  S
C1832      C1833   1.405       .  A
C1833      C1834   1.406       .  A
C1833      H1837   1.084       .  S
C1834      N1838   1.438       .  S
N1836      H1839   1.045       .  S
N1836      H1840   1.046       .  S
N1838      H1841   1.046       .  S
N1838      H1842   1.046       .  S
C1847      C1848   1.419       .  A
C1847      C1852   1.407       .  A
C1848      C1849   1.402       .  A
C1848      N1853   1.438       .  S
C1849      C1850   1.396       .  A
C1849      H1854   1.084       .  S
C1850      C1855   1.480       .  S
C1850      C1851   1.409       .  A
C1851      C1852   1.409       .  A
C1851      N1856   1.438       .  S
C1852      H1857   1.083       .  S
N1853      H1873   1.046       .  S
N1853      H1874   1.046       .  S
C1855      C1858   1.400       .  A
C1855      C1862   1.409       .  A
N1856      H1871   1.046       .  S
N1856      H1872   1.046       .  S
C1858      C1859   1.406       .  A
C1858      H1863   1.084       .  S
C1859      C1860   1.416       .  A
C1859      N1864   1.438       .  S
C1860      C1861   1.404       .  A
C1861      C1862   1.405       .  A
C1861      H1865   1.083       .  S
C1862      N1866   1.437       .  S
N1864      H1867   1.046       .  S
N1864      H1868   1.046       .  S
N1866      H1869   1.046       .  S
N1866      H1870   1.045       .  S
C1875      C1876   1.418       .  A
C1875      C1880   1.406       .  A
C1876      C1877   1.409       .  A
C1876      N1881   1.438       .  S
C1877      C1878   1.401       .  A
C1877      H1882   1.084       .  S
C1878      C1883   1.487       .  S
C1878      C1879   1.410       .  A
C1879      C1880   1.407       .  A
C1879      N1884   1.438       .  S
C1880      H1885   1.083       .  S
N1881      H1901   1.045       .  S
N1881      H1902   1.046       .  S
C1883      C1886   1.397       .  A
C1883      C1890   1.414       .  A
N1884      H1899   1.046       .  S
N1884      H1900   1.046       .  S
C1886      C1887   1.400       .  A
C1886      H1891   1.084       .  S
C1887      C1888   1.417       .  A
C1887      N1892   1.433       .  S
C1888      C1889   1.403       .  A
C1889      C1890   1.415       .  A
C1889      H1893   1.083       .  S
C1890      N1894   1.437       .  S
N1892      H1895   1.046       .  S
N1892      H1896   1.045       .  S
N1894      H1897   1.046       .  S
N1894      H1898   1.046       .  S
C1903      C1904   1.416       .  A
C1903      C1908   1.403       .  A
C1904      C1905   1.409       .  A
C1904      N1909   1.438       .  S
C1905      C1906   1.403       .  A
C1905      H1910   1.084       .  S
C1906      C1911   1.490       .  S
C1906      C1907   1.412       .  A
C1907      C1908   1.406       .  A
C1907      N1912   1.438       .  S
C1908      H1913   1.084       .  S
N1909      H1929   1.046       .  S
N1909      H1930   1.046       .  S
C1911      C1914   1.404       .  A
C1911      C1918   1.410       .  A
N1912      H1927   1.046       .  S
N1912      H1928   1.045       .  S
C1914      C1915   1.408       .  A
C1914      H1919   1.084       .  S
C1915      C1916   1.415       .  A
C1915      N1920   1.437       .  S
C1916      C1917   1.408       .  A
C1917      C1918   1.407       .  A
C1917      H1921   1.083       .  S
C1918      N1922   1.438       .  S
N1920      H1923   1.046       .  S
N1920      H1924   1.046       .  S
N1922      H1925   1.046       .  S
N1922      H1926   1.045       .  S
C1931      C1932   1.418       .  A
C1931      C1936   1.405       .  A
C1932      C1933   1.410       .  A
C1932      N1937   1.437       .  S
C1933      C1934   1.400       .  A
C1933      H1938   1.084       .  S
C1934      C1939   1.480       .  S
C1934      C1935   1.408       .  A
C1935      C1936   1.404       .  A
C1935      N1940   1.438       .  S
C1936      H1941   1.083       .  S
N1937      H1957   1.045       .  S
N1937      H1958   1.046       .  S
C1939      C1942   1.404       .  A
C1939      C1946   1.408       .  A
N1940      H1955   1.045       .  S
N1940      H1956   1.046       .  S
C1942      C1943   1.407       .  A
C1942      H1947   1.084       .  S
C1943      C1944   1.405       .  A
C1943      N1948   1.437       .  S
C1944      C1945   1.403       .  A
C1945      C1946   1.404       .  A
C1945      H1949   1.084       .  S
C1946      N1950   1.438       .  S
N1948      H1951   1.046       .  S
N1948      H1952   1.046       .  S
N1950      H1953   1.046       .  S
N1950      H1954   1.045       .  S
C1959      C1960   1.416       .  A
C1959      C1964   1.416       .  A
C1960      C1961   1.394       .  A
C1960      N1965   1.433       .  S
C1961      C1962   1.395   1_455  A
C1961      H1966   1.084   1_545  S
C1962      C1967   1.468       .  S
C1962      C1963   1.403       .  A
C1963      C1964   1.404   1_655  A
C1963      N1968   1.438       .  S
C1964      H1969   1.075       .  S
N1965      H1985   1.045       .  S
N1965      H1986   1.046       .  S
C1967      C1970   1.396       .  A
C1967      C1974   1.403   1_545  A
N1968      H1983   1.045       .  S
N1968      H1984   1.046       .  S
C1970      C1971   1.398   1_545  A
C1970      H1975   1.084       .  S
C1971      C1972   1.419       .  A
C1971      N1976   1.434       .  S
C1972      C1973   1.412       .  A
C1973      C1974   1.400       .  A
C1973      H1977   1.075       .  S
C1974      N1978   1.439   1_655  S
N1976      H1979   1.046       .  S
N1976      H1980   1.045   1_565  S
N1978      H1981   1.046       .  S
N1978      H1982   1.045       .  S
C1987      C1988   1.413       .  A
C1987      C1992   1.401       .  A
C1988      C1989   1.407       .  A
C1988      N1993   1.437       .  S
C1989      C1990   1.402       .  A
C1989      H1994   1.084       .  S
C1990      C1995   1.476       .  S
C1990      C1991   1.410       .  A
C1991      C1992   1.396       .  A
C1991      N1996   1.439       .  S
C1992      H1997   1.084       .  S
N1993      H2013   1.045       .  S
N1993      H2014   1.046       .  S
C1995      C1998   1.402       .  A
C1995      C2002   1.411       .  A
N1996      H2011   1.046       .  S
N1996      H2012   1.046       .  S
C1998      C1999   1.399       .  A
C1998      H2003   1.084       .  S
C1999      C2000   1.409       .  A
C1999      N2004   1.433       .  S
C2000      C2001   1.402       .  A
C2001      C2002   1.401       .  A
C2001      H2005   1.084       .  S
C2002      N2006   1.438       .  S
N2004      H2007   1.045       .  S
N2004      H2008   1.046       .  S
N2006      H2009   1.046       .  S
N2006      H2010   1.045       .  S
C2015      C2016   1.416       .  A
C2015      C2020   1.405       .  A
C2016      C2017   1.401       .  A
C2016      N2021   1.439       .  S
C2017      C2018   1.399       .  A
C2017      H2022   1.084       .  S
C2018      C2023   1.484       .  S
C2018      C2019   1.412       .  A
C2019      C2020   1.409       .  A
C2019      N2024   1.437       .  S
C2020      H2025   1.084       .  S
N2021      H2041   1.046       .  S
N2021      H2042   1.046       .  S
C2023      C2026   1.401       .  A
C2023      C2030   1.412       .  A
N2024      H2039   1.046       .  S
N2024      H2040   1.045       .  S
C2026      C2027   1.405       .  A
C2026      H2031   1.084       .  S
C2027      C2028   1.415       .  A
C2027      N2032   1.438       .  S
C2028      C2029   1.402       .  A
C2029      C2030   1.406       .  A
C2029      H2033   1.084       .  S
C2030      N2034   1.438       .  S
N2032      H2035   1.046       .  S
N2032      H2036   1.046       .  S
N2034      H2037   1.045       .  S
N2034      H2038   1.046       .  S
C2043      C2044   1.417       .  A
C2043      C2048   1.404       .  A
C2044      C2045   1.404       .  A
C2044      N2049   1.438       .  S
C2045      C2046   1.399       .  A
C2045      H2050   1.084       .  S
C2046      C2051   1.484       .  S
C2046      C2047   1.412       .  A
C2047      C2048   1.407       .  A
C2047      N2052   1.438       .  S
C2048      H2053   1.084       .  S
N2049      H2069   1.045       .  S
N2049      H2070   1.046       .  S
C2051      C2054   1.402       .  A
C2051      C2058   1.409       .  A
N2052      H2067   1.046       .  S
N2052      H2068   1.046       .  S
C2054      C2055   1.404       .  A
C2054      H2059   1.084       .  S
C2055      C2056   1.412       .  A
C2055      N2060   1.430       .  S
C2056      C2057   1.410       .  A
C2057      C2058   1.405       .  A
C2057      H2061   1.084       .  S
C2058      N2062   1.438       .  S
N2060      H2063   1.046       .  S
N2060      H2064   1.045       .  S
N2062      H2065   1.046   1_565  S
N2062      H2066   1.046       .  S
C2071      C2072   1.409       .  A
C2071      C2076   1.400       .  A
C2072      C2073   1.402       .  A
C2072      N2077   1.438       .  S
C2073      C2074   1.401       .  A
C2073      H2078   1.084       .  S
C2074      C2079   1.472       .  S
C2074      C2075   1.410       .  A
C2075      C2076   1.400       .  A
C2075      N2080   1.438       .  S
C2076      H2081   1.084       .  S
N2077      H2097   1.046       .  S
N2077      H2098   1.046       .  S
C2079      C2082   1.401       .  A
C2079      C2086   1.409       .  A
N2080      H2095   1.046       .  S
N2080      H2096   1.045       .  S
C2082      C2083   1.404       .  A
C2082      H2087   1.084       .  S
C2083      C2084   1.412       .  A
C2083      N2088   1.438       .  S
C2084      C2085   1.401       .  A
C2085      C2086   1.398       .  A
C2085      H2089   1.084       .  S
C2086      N2090   1.439       .  S
N2088      H2091   1.046       .  S
N2088      H2092   1.046       .  S
N2090      H2093   1.046       .  S
N2090      H2094   1.046       .  S
C2099      C2100   1.418   1_655  A
C2099      C2104   1.406   1_655  A
C2100      C2101   1.407       .  A
C2100      N2105   1.438       .  S
C2101      C2102   1.400       .  A
C2101      H2106   1.084       .  S
C2102      C2107   1.486       .  S
C2102      C2103   1.410       .  A
C2103      C2104   1.407       .  A
C2103      N2108   1.438       .  S
C2104      H2109   1.083   1_455  S
N2105      H2125   1.046       .  S
N2105      H2126   1.046       .  S
C2107      C2110   1.402       .  A
C2107      C2114   1.409       .  A
N2108      H2123   1.046       .  S
N2108      H2124   1.046       .  S
C2110      C2111   1.408       .  A
C2110      H2115   1.084       .  S
C2111      C2112   1.416       .  A
C2111      N2116   1.438       .  S
C2112      C2113   1.407       .  A
C2113      C2114   1.407       .  A
C2113      H2117   1.083       .  S
C2114      N2118   1.438       .  S
N2116      H2119   1.046       .  S
N2116      H2120   1.046       .  S
N2118      H2121   1.046       .  S
N2118      H2122   1.046       .  S
C2127      C2128   1.418       .  A
C2127      C2132   1.408       .  A
C2128      C2129   1.408       .  A
C2128      N2133   1.438       .  S
C2129      C2130   1.402       .  A
C2129      H2134   1.084       .  S
C2130      C2135   1.494       .  S
C2130      C2131   1.412       .  A
C2131      C2132   1.411       .  A
C2131      N2136   1.438       .  S
C2132      H2137   1.083       .  S
N2133      H2153   1.046       .  S
N2133      H2154   1.046       .  S
C2135      C2138   1.400       .  A
C2135      C2142   1.415       .  A
N2136      H2151   1.046       .  S
N2136      H2152   1.045       .  S
C2138      C2139   1.405       .  A
C2138      H2143   1.084       .  S
C2139      C2140   1.419       .  A
C2139      N2144   1.439       .  S
C2140      C2141   1.401       .  A
C2141      C2142   1.413       .  A
C2141      H2145   1.083       .  S
C2142      N2146   1.437       .  S
N2144      H2147   1.046       .  S
N2144      H2148   1.045       .  S
N2146      H2149   1.046       .  S
N2146      H2150   1.045       .  S
C2155      C2156   1.414       .  A
C2155      C2160   1.404       .  A
C2156      C2157   1.404       .  A
C2156      N2161   1.439       .  S
C2157      C2158   1.403       .  A
C2157      H2162   1.084       .  S
C2158      C2163   1.489       .  S
C2158      C2159   1.411       .  A
C2159      C2160   1.409       .  A
C2159      N2164   1.437       .  S
C2160      H2165   1.084       .  S
N2161      H2181   1.046       .  S
N2161      H2182   1.046       .  S
C2163      C2166   1.404       .  A
C2163      C2170   1.408       .  A
N2164      H2179   1.046       .  S
N2164      H2180   1.045       .  S
C2166      C2167   1.411       .  A
C2166      H2171   1.084       .  S
C2167      C2168   1.417       .  A
C2167      N2172   1.437       .  S
C2168      C2169   1.408       .  A
C2169      C2170   1.405       .  A
C2169      H2173   1.083   1_565  S
C2170      N2174   1.438       .  S
N2172      H2175   1.046       .  S
N2172      H2176   1.045       .  S
N2174      H2177   1.045       .  S
N2174      H2178   1.046       .  S
C2183      C2184   1.419       .  A
C2183      C2188   1.404       .  A
C2184      C2185   1.411       .  A
C2184      N2189   1.438       .  S
C2185      C2186   1.404       .  A
C2185      H2190   1.083       .  S
C2186      C2191   1.498       .  S
C2186      C2187   1.414       .  A
C2187      C2188   1.408       .  A
C2187      N2192   1.438       .  S
C2188      H2193   1.083       .  S
N2189      H2209   1.045       .  S
N2189      H2210   1.046       .  S
C2191      C2194   1.402       .  A
C2191      C2198   1.416       .  A
N2192      H2207   1.045       .  S
N2192      H2208   1.046       .  S
C2194      C2195   1.404       .  A
C2194      H2199   1.084       .  S
C2195      C2196   1.419       .  A
C2195      N2200   1.439       .  S
C2196      C2197   1.402       .  A
C2197      C2198   1.413       .  A
C2197      H2201   1.084       .  S
C2198      N2202   1.437       .  S
N2200      H2203   1.046       .  S
N2200      H2204   1.045       .  S
N2202      H2205   1.046       .  S
N2202      H2206   1.045       .  S
C2211      C2212   1.414       .  A
C2211      C2216   1.406       .  A
C2212      C2213   1.407       .  A
C2212      N2217   1.438       .  S
C2213      C2214   1.404       .  A
C2213      H2218   1.083       .  S
C2214      C2219   1.491       .  S
C2214      C2215   1.411       .  A
C2215      C2216   1.405       .  A
C2215      N2220   1.438       .  S
C2216      H2221   1.083       .  S
N2217      H2237   1.046       .  S
N2217      H2238   1.045       .  S
C2219      C2222   1.405       .  A
C2219      C2226   1.410       .  A
N2220      H2235   1.046       .  S
N2220      H2236   1.045       .  S
C2222      C2223   1.409       .  A
C2222      H2227   1.084       .  S
C2223      C2224   1.416       .  A
C2223      N2228   1.437       .  S
C2224      C2225   1.407       .  A
C2225      C2226   1.405       .  A
C2225      H2229   1.083       .  S
C2226      N2230   1.438       .  S
N2228      H2231   1.046       .  S
N2228      H2232   1.045       .  S
N2230      H2233   1.045       .  S
N2230      H2234   1.046       .  S
C2239      C2240   1.412       .  A
C2239      C2244   1.407       .  A
C2240      C2241   1.402       .  A
C2240      N2245   1.429       .  S
C2241      C2242   1.401       .  A
C2241      H2246   1.084       .  S
C2242      C2247   1.481       .  S
C2242      C2243   1.408       .  A
C2243      C2244   1.404       .  A
C2243      N2248   1.438       .  S
C2244      H2249   1.084       .  S
N2245      H2265   1.045       .  S
N2245      H2266   1.045       .  S
C2247      C2250   1.405       .  A
C2247      C2254   1.408       .  A
N2248      H2263   1.046       .  S
N2248      H2264   1.046       .  S
C2250      C2251   1.407       .  A
C2250      H2255   1.084       .  S
C2251      C2252   1.410       .  A
C2251      N2256   1.437       .  S
C2252      C2253   1.404       .  A
C2253      C2254   1.402       .  A
C2253      H2257   1.084       .  S
C2254      N2258   1.438       .  S
N2256      H2259   1.046       .  S
N2256      H2260   1.046       .  S
N2258      H2261   1.046       .  S
N2258      H2262   1.045       .  S
C2267      C2268   1.419       .  A
C2267      C2272   1.413       .  A
C2268      C2269   1.403       .  A
C2268      N2273   1.432       .  S
C2269      C2270   1.397       .  A
C2269      H2274   1.084       .  S
C2270      C2275   1.471       .  S
C2270      C2271   1.402       .  A
C2271      C2272   1.398       .  A
C2271      N2276   1.439       .  S
C2272      H2277   1.073       .  S
N2273      H2293   1.046       .  S
N2273      H2294   1.045       .  S
C2275      C2278   1.398       .  A
C2275      C2282   1.403       .  A
N2276      H2291   1.045       .  S
N2276      H2292   1.046       .  S
C2278      C2279   1.397       .  A
C2278      H2283   1.084       .  S
C2279      C2280   1.416       .  A
C2279      N2284   1.433       .  S
C2280      C2281   1.415       .  A
C2281      C2282   1.403       .  A
C2281      H2285   1.075       .  S
C2282      N2286   1.439       .  S
N2284      H2287   1.046       .  S
N2284      H2288   1.045       .  S
N2286      H2289   1.045       .  S
N2286      H2290   1.046       .  S
C2295      C2296   1.409       .  A
C2295      C2300   1.404       .  A
C2296      C2297   1.397       .  A
C2296      N2301   1.433       .  S
C2297      C2298   1.400       .  A
C2297      H2302   1.084       .  S
C2298      C2303   1.470       .  S
C2298      C2299   1.408       .  A
C2299      C2300   1.400       .  A
C2299      N2304   1.438       .  S
C2300      H2305   1.084       .  S
N2301      H2321   1.046       .  S
N2301      H2322   1.045       .  S
C2303      C2306   1.398       .  A
C2303      C2310   1.406       .  A
N2304      H2319   1.046       .  S
N2304      H2320   1.045       .  S
C2306      C2307   1.398       .  A
C2306      H2311   1.084       .  S
C2307      C2308   1.415       .  A
C2307      N2312   1.438       .  S
C2308      C2309   1.406       .  A
C2309      C2310   1.403       .  A
C2309      H2313   1.083       .  S
C2310      N2314   1.438       .  S
N2312      H2315   1.046       .  S
N2312      H2316   1.045       .  S
N2314      H2317   1.046       .  S
N2314      H2318   1.046       .  S
C2323      C2324   1.419       .  A
C2323      C2328   1.404       .  A
C2324      C2325   1.406       .  A
C2324      N2329   1.438       .  S
C2325      C2326   1.400       .  A
C2325      H2330   1.084       .  S
C2326      C2331   1.484       .  S
C2326      C2327   1.410       .  A
C2327      C2328   1.406       .  A
C2327      N2332   1.438       .  S
C2328      H2333   1.083       .  S
N2329      H2349   1.046       .  S
N2329      H2350   1.046       .  S
C2331      C2334   1.398       .  A
C2331      C2338   1.411       .  A
N2332      H2347   1.045       .  S
N2332      H2348   1.046       .  S
C2334      C2335   1.403       .  A
C2334      H2339   1.084       .  S
C2335      C2336   1.419       .  A
C2335      N2340   1.438       .  S
C2336      C2337   1.406       .  A
C2337      C2338   1.408       .  A
C2337      H2341   1.083       .  S
C2338      N2342   1.438       .  S
N2340      H2343   1.046       .  S
N2340      H2344   1.045       .  S
N2342      H2345   1.046       .  S
N2342      H2346   1.046       .  S
C2351      C2352   1.417       .  A
C2351      C2356   1.404       .  A
C2352      C2353   1.410       .  A
C2352      N2357   1.438       .  S
C2353      C2354   1.404       .  A
C2353      H2358   1.083       .  S
C2354      C2359   1.497       .  S
C2354      C2355   1.414       .  A
C2355      C2356   1.408       .  A
C2355      N2360   1.438       .  S
C2356      H2361   1.083       .  S
N2357      H2377   1.046       .  S
N2357      H2378   1.045       .  S
C2359      C2362   1.400       .  A
C2359      C2366   1.416       .  A
N2360      H2375   1.046       .  S
N2360      H2376   1.045       .  S
C2362      C2363   1.400       .  A
C2362      H2367   1.084       .  S
C2363      C2364   1.416       .  A
C2363      N2368   1.432       .  S
C2364      C2365   1.405       .  A
C2365      C2366   1.415       .  A
C2365      H2369   1.081       .  S
C2366      N2370   1.437       .  S
N2368      H2371   1.046       .  S
N2368      H2372   1.046       .  S
N2370      H2373   1.045       .  S
N2370      H2374   1.046       .  S
C2379      C2380   1.417       .  A
C2379      C2384   1.405       .  A
C2380      C2381   1.402       .  A
C2380      N2385   1.438       .  S
C2381      C2382   1.397       .  A
C2381      H2386   1.084       .  S
C2382      C2387   1.470       .  S
C2382      C2383   1.407       .  A
C2383      C2384   1.403       .  A
C2383      N2388   1.438       .  S
C2384      H2389   1.084       .  S
N2385      H2405   1.045       .  S
N2385      H2406   1.046       .  S
C2387      C2390   1.401       .  A
C2387      C2394   1.404       .  A
N2388      H2403   1.045       .  S
N2388      H2404   1.044       .  S
C2390      C2391   1.406       .  A
C2390      H2395   1.084       .  S
C2391      C2392   1.415       .  A
C2391      N2396   1.437       .  S
C2392      C2393   1.407       .  A
C2393      C2394   1.400       .  A
C2393      H2397   1.083       .  S
C2394      N2398   1.439       .  S
N2396      H2399   1.046       .  S
N2396      H2400   1.046       .  S
N2398      H2401   1.046       .  S
N2398      H2402   1.044       .  S
C2407      C2408   1.406       .  A
C2407      C2412   1.408       .  A
C2408      C2409   1.411       .  A
C2408      N2413   1.437       .  S
C2409      C2410   1.408       .  A
C2409      H2414   1.083       .  S
C2410      C2415   1.482       .  S
C2410      C2411   1.406       .  A
C2411      C2412   1.399       .  A
C2411      N2416   1.438       .  S
C2412      H2417   1.084       .  S
N2413      H2433   1.046       .  S
N2413      H2434   1.045       .  S
C2415      C2418   1.404       .  A
C2415      C2422   1.406       .  A
N2416      H2431   1.046       .  S
N2416      H2432   1.046       .  S
C2418      C2419   1.405       .  A
C2418      H2423   1.084       .  S
C2419      C2420   1.413       .  A
C2419      N2424   1.438       .  S
C2420      C2421   1.407       .  A
C2421      C2422   1.405       .  A
C2421      H2425   1.083       .  S
C2422      N2426   1.437       .  S
N2424      H2427   1.045       .  S
N2424      H2428   1.046       .  S
N2426      H2429   1.045       .  S
N2426      H2430   1.046       .  S
C2435      C2436   1.412       .  A
C2435      C2440   1.403       .  A
C2436      C2437   1.404       .  A
C2436      N2441   1.438       .  S
C2437      C2438   1.402       .  A
C2437      H2442   1.084       .  S
C2438      C2443   1.476       .  S
C2438      C2439   1.408       .  A
C2439      C2440   1.400       .  A
C2439      N2444   1.438       .  S
C2440      H2445   1.084       .  S
N2441      H2461   1.045       .  S
N2441      H2462   1.046       .  S
C2443      C2446   1.399       .  A
C2443      C2450   1.408       .  A
N2444      H2459   1.046       .  S
N2444      H2460   1.046       .  S
C2446      C2447   1.403       .  A
C2446      H2451   1.084       .  S
C2447      C2448   1.416       .  A
C2447      N2452   1.438       .  S
C2448      C2449   1.406       .  A
C2449      C2450   1.403       .  A
C2449      H2453   1.083       .  S
C2450      N2454   1.438       .  S
N2452      H2455   1.046       .  S
N2452      H2456   1.046       .  S
N2454      H2457   1.046       .  S
N2454      H2458   1.046       .  S
C2463      C2464   1.414       .  A
C2463      C2468   1.407       .  A
C2464      C2465   1.404       .  A
C2464      N2469   1.438       .  S
C2465      C2466   1.403       .  A
C2465      H2470   1.084       .  S
C2466      C2471   1.490       .  S
C2466      C2467   1.412       .  A
C2467      C2468   1.408       .  A
C2467      N2472   1.438       .  S
C2468      H2473   1.084       .  S
N2469      H2489   1.045       .  S
N2469      H2490   1.046       .  S
C2471      C2474   1.403       .  A
C2471      C2478   1.414       .  A
N2472      H2487   1.046       .  S
N2472      H2488   1.045       .  S
C2474      C2475   1.404       .  A
C2474      H2479   1.084       .  S
C2475      C2476   1.413       .  A
C2475      N2480   1.433       .  S
C2476      C2477   1.404       .  A
C2477      C2478   1.406       .  A
C2477      H2481   1.083       .  S
C2478      N2482   1.438       .  S
N2480      H2483   1.046       .  S
N2480      H2484   1.045       .  S
N2482      H2485   1.046       .  S
N2482      H2486   1.045       .  S
C2491      C2492   1.416       .  A
C2491      C2496   1.405       .  A
C2492      C2493   1.405       .  A
C2492      N2497   1.438       .  S
C2493      C2494   1.402       .  A
C2493      H2498   1.083       .  S
C2494      C2499   1.494       .  S
C2494      C2495   1.414       .  A
C2495      C2496   1.410       .  A
C2495      N2500   1.438       .  S
C2496      H2501   1.083       .  S
N2497      H2517   1.045       .  S
N2497      H2518   1.046       .  S
C2499      C2502   1.405       .  A
C2499      C2506   1.415       .  A
N2500      H2515   1.045       .  S
N2500      H2516   1.046       .  S
C2502      C2503   1.405       .  A
C2502      H2507   1.084       .  S
C2503      C2504   1.409       .  A
C2503      N2508   1.432       .  S
C2504      C2505   1.403       .  A
C2505      C2506   1.407       .  A
C2505      H2509   1.081       .  S
C2506      N2510   1.438       .  S
N2508      H2511   1.045       .  S
N2508      H2512   1.045       .  S
N2510      H2513   1.045       .  S
N2510      H2514   1.046       .  S
C2519      C2520   1.416       .  A
C2519      C2524   1.405       .  A
C2520      C2521   1.404       .  A
C2520      N2525   1.438       .  S
C2521      C2522   1.401       .  A
C2521      H2526   1.084       .  S
C2522      C2527   1.486       .  S
C2522      C2523   1.412       .  A
C2523      C2524   1.407       .  A
C2523      N2528   1.438       .  S
C2524      H2529   1.083       .  S
N2525      H2545   1.046       .  S
N2525      H2546   1.046       .  S
C2527      C2530   1.399       .  A
C2527      C2534   1.413       .  A
N2528      H2543   1.046       .  S
N2528      H2544   1.045       .  S
C2530      C2531   1.403       .  A
C2530      H2535   1.084       .  S
C2531      C2532   1.417       .  A
C2531      N2536   1.438       .  S
C2532      C2533   1.404       .  A
C2533      C2534   1.409       .  A
C2533      H2537   1.083       .  S
C2534      N2538   1.438       .  S
N2536      H2539   1.045       .  S
N2536      H2540   1.046       .  S
N2538      H2541   1.046       .  S
N2538      H2542   1.046       .  S
C2547      C2548   1.413       .  A
C2547      C2552   1.403       .  A
C2548      C2549   1.411       .  A
C2548      N2553   1.437       .  S
C2549      C2550   1.407       .  A
C2549      H2554   1.083       .  S
C2550      C2555   1.492       .  S
C2550      C2551   1.412       .  A
C2551      C2552   1.402       .  A
C2551      N2556   1.438       .  S
C2552      H2557   1.084       .  S
N2553      H2573   1.046       .  S
N2553      H2574   1.046       .  S
C2555      C2558   1.400       .  A
C2555      C2562   1.412       .  A
N2556      H2571   1.045       .  S
N2556      H2572   1.046       .  S
C2558      C2559   1.399       .  A
C2558      H2563   1.084       .  S
C2559      C2560   1.412       .  A
C2559      N2564   1.428       .  S
C2560      C2561   1.410       .  A
C2561      C2562   1.412       .  A
C2561      H2565   1.083       .  S
C2562      N2566   1.437       .  S
N2564      H2567   1.045       .  S
N2564      H2568   1.045       .  S
N2566      H2569   1.046       .  S
N2566      H2570   1.046       .  S
C2575      C2576   1.419       .  A
C2575      C2580   1.413       .  A
C2576      C2577   1.400       .  A
C2576      N2581   1.434       .  S
C2577      C2578   1.399       .  A
C2577      H2582   1.084       .  S
C2578      C2583   1.489       .  S
C2578      C2579   1.410       .  A
C2579      C2580   1.411       .  A
C2579      N2584   1.438       .  S
C2580      H2585   1.076       .  S
N2581      H2601   1.045       .  S
N2581      H2602   1.046       .  S
C2583      C2586   1.400       .  A
C2583      C2590   1.409       .  A
N2584      H2599   1.046       .  S
N2584      H2600   1.045       .  S
C2586      C2587   1.406       .  A
C2586      H2591   1.084       .  S
C2587      C2588   1.421       .  A
C2587      N2592   1.432       .  S
C2588      C2589   1.412       .  A
C2589      C2590   1.405       .  A
C2589      H2593   1.074       .  S
C2590      N2594   1.439       .  S
N2592      H2595   1.046       .  S
N2592      H2596   1.045       .  S
N2594      H2597   1.045       .  S
N2594      H2598   1.046       .  S
C2603      C2604   1.415       .  A
C2603      C2608   1.404       .  A
C2604      C2605   1.404       .  A
C2604      N2609   1.437       .  S
C2605      C2606   1.400       .  A
C2605      H2610   1.084       .  S
C2606      C2611   1.477       .  S
C2606      C2607   1.410       .  A
C2607      C2608   1.399       .  A
C2607      N2612   1.439       .  S
C2608      H2613   1.083       .  S
N2609      H2629   1.046       .  S
N2609      H2630   1.046       .  S
C2611      C2614   1.402       .  A
C2611      C2618   1.412       .  A
N2612      H2627   1.046       .  S
N2612      H2628   1.046       .  S
C2614      C2615   1.400       .  A
C2614      H2619   1.084       .  S
C2615      C2616   1.410       .  A
C2615      N2620   1.438       .  S
C2616      C2617   1.401       .  A
C2617      C2618   1.402       .  A
C2617      H2621   1.084       .  S
C2618      N2622   1.438       .  S
N2620      H2623   1.045       .  S
N2620      H2624   1.046       .  S
N2622      H2625   1.046       .  S
N2622      H2626   1.045       .  S
C2631      C2632   1.415       .  A
C2631      C2636   1.408       .  A
C2632      C2633   1.405       .  A
C2632      N2637   1.438       .  S
C2633      C2634   1.400       .  A
C2633      H2638   1.084       .  S
C2634      C2639   1.477       .  S
C2634      C2635   1.406       .  A
C2635      C2636   1.406       .  A
C2635      N2640   1.438       .  S
C2636      H2641   1.083       .  S
N2637      H2657   1.046       .  S
N2637      H2658   1.046       .  S
C2639      C2642   1.399       .  A
C2639      C2646   1.408       .  A
N2640      H2655   1.045       .  S
N2640      H2656   1.046       .  S
C2642      C2643   1.404       .  A
C2642      H2647   1.084       .  S
C2643      C2644   1.416       .  A
C2643      N2648   1.438       .  S
C2644      C2645   1.405       .  A
C2645      C2646   1.406       .  A
C2645      H2649   1.083       .  S
C2646      N2650   1.437       .  S
N2648      H2651   1.046       .  S
N2648      H2652   1.045       .  S
N2650      H2653   1.045       .  S
N2650      H2654   1.046       .  S
C2659      C2660   1.415       .  A
C2659      C2664   1.404       .  A
C2660      C2661   1.406       .  A
C2660      N2665   1.438       .  S
C2661      C2662   1.402       .  A
C2661      H2666   1.084       .  S
C2662      C2667   1.491       .  S
C2662      C2663   1.414       .  A
C2663      C2664   1.410       .  A
C2663      N2668   1.437       .  S
C2664      H2669   1.084       .  S
N2665      H2685   1.045       .  S
N2665      H2686   1.046       .  S
C2667      C2670   1.401       .  A
C2667      C2674   1.416       .  A
N2668      H2683   1.046       .  S
N2668      H2684   1.045       .  S
C2670      C2671   1.400       .  A
C2670      H2675   1.084       .  S
C2671      C2672   1.413       .  A
C2671      N2676   1.433       .  S
C2672      C2673   1.403       .  A
C2673      C2674   1.413       .  A
C2673      H2677   1.083       .  S
C2674      N2678   1.437       .  S
N2676      H2679   1.045       .  S
N2676      H2680   1.046       .  S
N2678      H2681   1.046       .  S
N2678      H2682   1.045       .  S
C2687      C2688   1.411       .  A
C2687      C2692   1.401       .  A
C2688      C2689   1.400       .  A
C2688      N2693   1.439       .  S
C2689      C2690   1.403       .  A
C2689      H2694   1.084       .  S
C2690      C2695   1.473       .  S
C2690      C2691   1.408       .  A
C2691      C2692   1.399       .  A
C2691      N2696   1.437       .  S
C2692      H2697   1.084       .  S
N2693      H2713   1.045       .  S
N2693      H2714   1.046       .  S
C2695      C2698   1.401       .  A
C2695      C2702   1.406       .  A
N2696      H2711   1.046       .  S
N2696      H2712   1.046       .  S
C2698      C2699   1.400       .  A
C2698      H2703   1.084       .  S
C2699      C2700   1.413       .  A
C2699      N2704   1.438       .  S
C2700      C2701   1.406       .  A
C2701      C2702   1.400       .  A
C2701      H2705   1.083       .  S
C2702      N2706   1.438       .  S
N2704      H2707   1.046       .  S
N2704      H2708   1.046       .  S
N2706      H2709   1.046       .  S
N2706      H2710   1.046       .  S
C2715      C2716   1.419       .  A
C2715      C2720   1.404       .  A
C2716      C2717   1.405       .  A
C2716      N2721   1.438       .  S
C2717      C2718   1.400       .  A
C2717      H2722   1.084       .  S
C2718      C2723   1.484       .  S
C2718      C2719   1.410       .  A
C2719      C2720   1.405       .  A
C2719      N2724   1.438       .  S
C2720      H2725   1.083       .  S
N2721      H2741   1.045       .  S
N2721      H2742   1.046       .  S
C2723      C2726   1.400       .  A
C2723      C2730   1.410       .  A
N2724      H2739   1.046       .  S
N2724      H2740   1.046       .  S
C2726      C2727   1.405       .  A
C2726      H2731   1.084       .  S
C2727      C2728   1.418       .  A
C2727      N2732   1.438       .  S
C2728      C2729   1.405       .  A
C2729      C2730   1.406       .  A
C2729      H2733   1.083       .  S
C2730      N2734   1.438       .  S
N2732      H2735   1.046       .  S
N2732      H2736   1.046       .  S
N2734      H2737   1.046       .  S
N2734      H2738   1.045       .  S
C2743      C2744   1.415       .  A
C2743      C2748   1.405       .  A
C2744      C2745   1.407       .  A
C2744      N2749   1.438       .  S
C2745      C2746   1.402       .  A
C2745      H2750   1.084       .  S
C2746      C2751   1.493       .  S
C2746      C2747   1.414       .  A
C2747      C2748   1.411       .  A
C2747      N2752   1.438       .  S
C2748      H2753   1.084       .  S
N2749      H2769   1.046       .  S
N2749      H2770   1.046       .  S
C2751      C2754   1.401       .  A
C2751      C2758   1.416       .  A
N2752      H2767   1.046       .  S
N2752      H2768   1.046       .  S
C2754      C2755   1.404       .  A
C2754      H2759   1.084       .  S
C2755      C2756   1.415       .  A
C2755      N2760   1.438       .  S
C2756      C2757   1.401       .  A
C2757      C2758   1.412       .  A
C2757      H2761   1.084       .  S
C2758      N2762   1.437       .  S
N2760      H2763   1.045       .  S
N2760      H2764   1.044       .  S
N2762      H2765   1.046       .  S
N2762      H2766   1.045       .  S
C2771      C2772   1.414       .  A
C2771      C2776   1.409       .  A
C2772      C2773   1.408       .  A
C2772      N2777   1.437       .  S
C2773      C2774   1.403       .  A
C2773      H2778   1.084       .  S
C2774      C2779   1.484       .  S
C2774      C2775   1.407       .  A
C2775      C2776   1.404       .  A
C2775      N2780   1.438       .  S
C2776      H2781   1.083       .  S
N2777      H2797   1.046       .  S
N2777      H2798   1.045       .  S
C2779      C2782   1.402       .  A
C2779      C2786   1.408       .  A
N2780      H2795   1.045       .  S
N2780      H2796   1.046       .  S
C2782      C2783   1.406       .  A
C2782      H2787   1.084       .  S
C2783      C2784   1.416       .  A
C2783      N2788   1.438       .  S
C2784      C2785   1.408       .  A
C2785      C2786   1.407       .  A
C2785      H2789   1.083       .  S
C2786      N2790   1.438       .  S
N2788      H2791   1.046       .  S
N2788      H2792   1.046       .  S
N2790      H2793   1.045       .  S
N2790      H2794   1.046       .  S
C2799      C2800   1.416       .  A
C2799      C2804   1.404       .  A
C2800      C2801   1.407       .  A
C2800      N2805   1.438       .  S
C2801      C2802   1.404       .  A
C2801      H2806   1.083       .  S
C2802      C2807   1.502       .  S
C2802      C2803   1.418       .  A
C2803      C2804   1.412       .  A
C2803      N2808   1.438       .  S
C2804      H2809   1.084       .  S
N2805      H2825   1.046       .  S
N2805      H2826   1.046       .  S
C2807      C2810   1.404       .  A
C2807      C2814   1.415       .  A
N2808      H2823   1.046       .  S
N2808      H2824   1.046       .  S
C2810      C2811   1.407       .  A
C2810      H2815   1.084       .  S
C2811      C2812   1.414       .  A
C2811      N2816   1.429       .  S
C2812      C2813   1.409       .  A
C2813      C2814   1.411       .  A
C2813      H2817   1.083       .  S
C2814      N2818   1.438       .  S
N2816      H2819   1.046       .  S
N2816      H2820   1.045       .  S
N2818      H2821   1.046       .  S
N2818      H2822   1.045       .  S
C2827      C2828   1.406       .  A
C2827      C2832   1.402       .  A
C2828      C2829   1.397       .  A
C2828      N2833   1.433       .  S
C2829      C2830   1.402       .  A
C2829      H2834   1.084       .  S
C2830      C2835   1.476       .  S
C2830      C2831   1.410       .  A
C2831      C2832   1.405       .  A
C2831      N2836   1.437       .  S
C2832      H2837   1.084       .  S
N2833      H2853   1.046       .  S
N2833      H2854   1.045       .  S
C2835      C2838   1.401       .  A
C2835      C2842   1.409       .  A
N2836      H2851   1.046       .  S
N2836      H2852   1.045       .  S
C2838      C2839   1.399       .  A
C2838      H2843   1.084       .  S
C2839      C2840   1.410       .  A
C2839      N2844   1.438       .  S
C2840      C2841   1.403       .  A
C2841      C2842   1.406       .  A
C2841      H2845   1.084       .  S
C2842      N2846   1.437       .  S
N2844      H2847   1.046       .  S
N2844      H2848   1.046       .  S
N2846      H2849   1.046       .  S
N2846      H2850   1.045       .  S
C2855      C2856   1.415       .  A
C2855      C2860   1.406       .  A
C2856      C2857   1.402       .  A
C2856      N2861   1.433       .  S
C2857      C2858   1.399       .  A
C2857      H2862   1.084       .  S
C2858      C2863   1.485       .  S
C2858      C2859   1.412       .  A
C2859      C2860   1.412       .  A
C2859      N2864   1.437       .  S
C2860      H2865   1.083       .  S
N2861      H2881   1.046       .  S
N2861      H2882   1.046       .  S
C2863      C2866   1.403       .  A
C2863      C2870   1.407       .  A
N2864      H2879   1.046       .  S
N2864      H2880   1.044       .  S
C2866      C2867   1.411       .  A
C2866      H2871   1.084       .  S
C2867      C2868   1.416       .  A
C2867      N2872   1.437       .  S
C2868      C2869   1.409       .  A
C2869      C2870   1.407       .  A
C2869      H2873   1.083       .  S
C2870      N2874   1.438       .  S
N2872      H2875   1.046       .  S
N2872      H2876   1.046       .  S
N2874      H2877   1.045       .  S
N2874      H2878   1.045       .  S
C2883      C2884   1.407       .  A
C2883      C2888   1.406       .  A
C2884      C2885   1.409       .  A
C2884      N2889   1.431       .  S
C2885      C2886   1.408       .  A
C2885      H2890   1.084       .  S
C2886      C2891   1.492       .  S
C2886      C2887   1.410       .  A
C2887      C2888   1.407       .  A
C2887      N2892   1.438       .  S
C2888      H2893   1.084       .  S
N2889      H2909   1.046       .  S
N2889      H2910   1.046       .  S
C2891      C2894   1.405       .  A
C2891      C2898   1.411       .  A
N2892      H2907   1.045       .  S
N2892      H2908   1.046       .  S
C2894      C2895   1.406       .  A
C2894      H2899   1.084       .  S
C2895      C2896   1.412       .  A
C2895      N2900   1.432       .  S
C2896      C2897   1.406       .  A
C2897      C2898   1.407       .  A
C2897      H2901   1.082       .  S
C2898      N2902   1.437       .  S
N2900      H2903   1.046       .  S
N2900      H2904   1.046       .  S
N2902      H2905   1.046       .  S
N2902      H2906   1.045       .  S
C2911      C2912   1.418       .  A
C2911      C2916   1.415       .  A
C2912      C2913   1.400       .  A
C2912      N2917   1.433       .  S
C2913      C2914   1.397       .  A
C2913      H2918   1.084       .  S
C2914      C2919   1.470       .  S
C2914      C2915   1.401       .  A
C2915      C2916   1.402       .  A
C2915      N2920   1.439       .  S
C2916      H2921   1.073       .  S
N2917      H2937   1.046       .  S
N2917      H2938   1.045       .  S
C2919      C2922   1.397       .  A
C2919      C2926   1.402       .  A
N2920      H2935   1.045       .  S
N2920      H2936   1.046       .  S
C2922      C2923   1.404       .  A
C2922      H2927   1.084       .  S
C2923      C2924   1.421       .  A
C2923      N2928   1.438       .  S
C2924      C2925   1.413       .  A
C2925      C2926   1.399       .  A
C2925      H2929   1.078       .  S
C2926      N2930   1.439       .  S
N2928      H2931   1.044       .  S
N2928      H2932   1.046       .  S
N2930      H2933   1.046       .  S
N2930      H2934   1.046       .  S
C2939      C2940   1.415       .  A
C2939      C2944   1.405       .  A
C2940      C2941   1.404       .  A
C2940      N2945   1.438       .  S
C2941      C2942   1.401       .  A
C2941      H2946   1.084       .  S
C2942      C2947   1.481       .  S
C2942      C2943   1.409       .  A
C2943      C2944   1.406       .  A
C2943      N2948   1.437       .  S
C2944      H2949   1.084       .  S
N2945      H2965   1.046       .  S
N2945      H2966   1.046       .  S
C2947      C2950   1.402       .  A
C2947      C2954   1.408       .  A
N2948      H2963   1.045       .  S
N2948      H2964   1.046       .  S
C2950      C2951   1.406       .  A
C2950      H2955   1.084       .  S
C2951      C2952   1.414       .  A
C2951      N2956   1.438       .  S
C2952      C2953   1.404       .  A
C2953      C2954   1.404       .  A
C2953      H2957   1.084       .  S
C2954      N2958   1.437       .  S
N2956      H2959   1.046       .  S
N2956      H2960   1.046       .  S
N2958      H2961   1.045       .  S
N2958      H2962   1.046       .  S
C2967      C2968   1.418       .  A
C2967      C2972   1.406       .  A
C2968      C2969   1.404       .  A
C2968      N2973   1.438       .  S
C2969      C2970   1.401       .  A
C2969      H2974   1.084       .  S
C2970      C2975   1.491       .  S
C2970      C2971   1.413       .  A
C2971      C2972   1.409       .  A
C2971      N2976   1.438       .  S
C2972      H2977   1.083       .  S
N2973      H2993   1.046       .  S
N2973      H2994   1.046       .  S
C2975      C2978   1.404       .  A
C2975      C2982   1.413       .  A
N2976      H2991   1.046       .  S
N2976      H2992   1.045       .  S
C2978      C2979   1.408       .  A
C2978      H2983   1.084       .  S
C2979      C2980   1.415       .  A
C2979      N2984   1.438       .  S
C2980      C2981   1.403       .  A
C2981      C2982   1.406       .  A
C2981      H2985   1.084       .  S
C2982      N2986   1.438       .  S
N2984      H2987   1.046       .  S
N2984      H2988   1.046       .  S
N2986      H2989   1.046       .  S
N2986      H2990   1.046       .  S
C2995      C2996   1.419       .  A
C2995      C3000   1.407       .  A
C2996      C2997   1.407       .  A
C2996      N3001   1.437       .  S
C2997      C2998   1.398       .  A
C2997      H3002   1.084       .  S
C2998      C3003   1.483       .  S
C2998      C2999   1.411       .  A
C2999      C3000   1.408       .  A
C2999      N3004   1.438       .  S
C3000      H3005   1.083       .  S
N3001      H3021   1.046       .  S
N3001      H3022   1.046       .  S
C3003      C3006   1.397       .  A
C3003      C3010   1.414       .  A
N3004      H3019   1.046       .  S
N3004      H3020   1.046       .  S
C3006      C3007   1.397       .  A
C3006      H3011   1.084       .  S
C3007      C3008   1.410       .  A
C3007      N3012   1.431       .  S
C3008      C3009   1.401       .  A
C3009      C3010   1.412       .  A
C3009      H3013   1.084       .  S
C3010      N3014   1.437       .  S
N3012      H3015   1.046       .  S
N3012      H3016   1.045       .  S
N3014      H3017   1.046       .  S
N3014      H3018   1.045       .  S
C3023      C3024   1.415       .  A
C3023      C3028   1.404       .  A
C3024      C3025   1.405       .  A
C3024      N3029   1.437       .  S
C3025      C3026   1.400       .  A
C3025      H3030   1.084       .  S
C3026      C3031   1.470       .  S
C3026      C3027   1.406       .  A
C3027      C3028   1.397       .  A
C3027      N3032   1.439       .  S
C3028      H3033   1.084       .  S
N3029      H3049   1.045       .  S
N3029      H3050   1.046       .  S
C3031      C3034   1.400       .  A
C3031      C3038   1.407       .  A
N3032      H3047   1.046       .  S
N3032      H3048   1.046       .  S
C3034      C3035   1.399       .  A
C3034      H3039   1.084       .  S
C3035      C3036   1.413       .  A
C3035      N3040   1.438       .  S
C3036      C3037   1.403       .  A
C3037      C3038   1.402       .  A
C3037      H3041   1.084       .  S
C3038      N3042   1.438       .  S
N3040      H3043   1.046       .  S
N3040      H3044   1.046       .  S
N3042      H3045   1.046       .  S
N3042      H3046   1.046       .  S
C3051      C3052   1.415       .  A
C3051      C3056   1.409       .  A
C3052      C3053   1.410       .  A
C3052      N3057   1.437       .  S
C3053      C3054   1.403       .  A
C3053      H3058   1.084       .  S
C3054      C3059   1.485       .  S
C3054      C3055   1.406       .  A
C3055      C3056   1.406       .  A
C3055      N3060   1.438       .  S
C3056      H3061   1.083       .  S
N3057      H3077   1.046       .  S
N3057      H3078   1.046       .  S
C3059      C3062   1.402       .  A
C3059      C3066   1.406       .  A
N3060      H3075   1.046       .  S
N3060      H3076   1.046       .  S
C3062      C3063   1.411       .  A
C3062      H3067   1.084       .  S
C3063      C3064   1.417       .  A
C3063      N3068   1.437       .  S
C3064      C3065   1.408       .  A
C3065      C3066   1.406       .  A
C3065      H3069   1.083       .  S
C3066      N3070   1.438       .  S
N3068      H3071   1.046       .  S
N3068      H3072   1.046       .  S
N3070      H3073   1.046       .  S
N3070      H3074   1.046       .  S
C3079      C3080   1.419       .  A
C3079      C3084   1.410       .  A
C3080      C3081   1.408       .  A
C3080      N3085   1.438       .  S
C3081      C3082   1.399       .  A
C3081      H3086   1.084       .  S
C3082      C3087   1.488       .  S
C3082      C3083   1.409       .  A
C3083      C3084   1.413       .  A
C3083      N3088   1.437       .  S
C3084      H3089   1.083       .  S
N3085      H3105   1.046       .  S
N3085      H3106   1.046       .  S
C3087      C3090   1.399       .  A
C3087      C3094   1.413       .  A
N3088      H3103   1.045       .  S
N3088      H3104   1.046       .  S
C3090      C3091   1.403       .  A
C3090      H3095   1.084       .  S
C3091      C3092   1.413       .  A
C3091      N3096   1.433       .  S
C3092      C3093   1.402       .  A
C3093      C3094   1.414       .  A
C3093      H3097   1.084       .  S
C3094      N3098   1.437       .  S
N3096      H3099   1.045       .  S
N3096      H3100   1.046       .  S
N3098      H3101   1.046       .  S
N3098      H3102   1.045       .  S
C3107      C3108   1.412       .  A
C3107      C3112   1.404       .  A
C3108      C3109   1.396       .  A
C3108      N3113   1.439       .  S
C3109      C3110   1.398       .  A
C3109      H3114   1.084       .  S
C3110      C3115   1.468       .  S
C3110      C3111   1.407       .  A
C3111      C3112   1.405       .  A
C3111      N3116   1.437       .  S
C3112      H3117   1.084       .  S
N3113      H3133   1.046       .  S
N3113      H3134   1.046       .  S
C3115      C3118   1.399       .  A
C3115      C3122   1.406       .  A
N3116      H3131   1.046       .  S
N3116      H3132   1.046       .  S
C3118      C3119   1.405       .  A
C3118      H3123   1.084       .  S
C3119      C3120   1.415       .  A
C3119      N3124   1.438       .  S
C3120      C3121   1.403       .  A
C3121      C3122   1.396       .  A
C3121      H3125   1.084       .  S
C3122      N3126   1.439       .  S
N3124      H3127   1.046       .  S
N3124      H3128   1.046       .  S
N3126      H3129   1.046       .  S
N3126      H3130   1.045       .  S
C3135      C3136   1.414       .  A
C3135      C3140   1.407       .  A
C3136      C3137   1.410       .  A
C3136      N3141   1.437       .  S
C3137      C3138   1.407       .  A
C3137      H3142   1.083       .  S
C3138      C3143   1.494       .  S
C3138      C3139   1.411       .  A
C3139      C3140   1.405       .  A
C3139      N3144   1.438       .  S
C3140      H3145   1.083       .  S
N3141      H3161   1.046       .  S
N3141      H3162   1.045       .  S
C3143      C3146   1.407       .  A
C3143      C3150   1.411       .  A
N3144      H3159   1.045       .  S
N3144      H3160   1.046       .  S
C3146      C3147   1.410       .  A
C3146      H3151   1.083       .  S
C3147      C3148   1.412       .  A
C3147      N3152   1.437       .  S
C3148      C3149   1.406       .  A
C3149      C3150   1.406       .  A
C3149      H3153   1.084       .  S
C3150      N3154   1.438       .  S
N3152      H3155   1.046       .  S
N3152      H3156   1.045       .  S
N3154      H3157   1.045       .  S
N3154      H3158   1.046       .  S
C3163      C3164   1.415       .  A
C3163      C3168   1.409       .  A
C3164      C3165   1.411       .  A
C3164      N3169   1.437       .  S
C3165      C3166   1.405       .  A
C3165      H3170   1.084       .  S
C3166      C3171   1.490       .  S
C3166      C3167   1.408       .  A
C3167      C3168   1.407       .  A
C3167      N3172   1.438       .  S
C3168      H3173   1.083       .  S
N3169      H3189   1.046       .  S
N3169      H3190   1.046       .  S
C3171      C3174   1.405       .  A
C3171      C3178   1.407       .  A
N3172      H3187   1.045       .  S
N3172      H3188   1.046       .  S
C3174      C3175   1.410       .  A
C3174      H3179   1.084       .  S
C3175      C3176   1.412       .  A
C3175      N3180   1.431       .  S
C3176      C3177   1.412       .  A
C3177      C3178   1.405       .  A
C3177      H3181   1.082       .  S
C3178      N3182   1.438       .  S
N3180      H3183   1.045       .  S
N3180      H3184   1.046       .  S
N3182      H3185   1.045       .  S
N3182      H3186   1.046       .  S
C3191      C3192   1.416       .  A
C3191      C3196   1.404       .  A
C3192      C3193   1.404       .  A
C3192      N3197   1.438       .  S
C3193      C3194   1.399       .  A
C3193      H3198   1.084       .  S
C3194      C3199   1.472       .  S
C3194      C3195   1.408       .  A
C3195      C3196   1.398       .  A
C3195      N3200   1.438       .  S
C3196      H3201   1.084       .  S
N3197      H3217   1.046       .  S
N3197      H3218   1.046       .  S
C3199      C3202   1.399       .  A
C3199      C3206   1.406       .  A
N3200      H3215   1.046       .  S
N3200      H3216   1.045       .  S
C3202      C3203   1.398       .  A
C3202      H3207   1.084       .  S
C3203      C3204   1.414       .  A
C3203      N3208   1.438       .  S
C3204      C3205   1.408       .  A
C3205      C3206   1.405       .  A
C3205      H3209   1.083       .  S
C3206      N3210   1.438       .  S
N3208      H3211   1.046       .  S
N3208      H3212   1.046       .  S
N3210      H3213   1.046       .  S
N3210      H3214   1.046       .  S
C3219      C3220   1.414       .  A
C3219      C3224   1.405       .  A
C3220      C3221   1.406       .  A
C3220      N3225   1.438       .  S
C3221      C3222   1.402       .  A
C3221      H3226   1.084       .  S
C3222      C3227   1.484       .  S
C3222      C3223   1.409       .  A
C3223      C3224   1.406       .  A
C3223      N3228   1.437       .  S
C3224      H3229   1.084       .  S
N3225      H3245   1.046       .  S
N3225      H3246   1.046       .  S
C3227      C3230   1.403       .  A
C3227      C3234   1.407       .  A
N3228      H3243   1.046       .  S
N3228      H3244   1.045       .  S
C3230      C3231   1.409       .  A
C3230      H3235   1.084       .  S
C3231      C3232   1.415       .  A
C3231      N3236   1.437       .  S
C3232      C3233   1.408       .  A
C3233      C3234   1.405       .  A
C3233      H3237   1.083       .  S
C3234      N3238   1.438       .  S
N3236      H3239   1.046       .  S
N3236      H3240   1.045       .  S
N3238      H3241   1.046       .  S
N3238      H3242   1.046       .  S
C3247      C3248   1.414       .  A
C3247      C3252   1.407       .  A
C3248      C3249   1.410       .  A
C3248      N3253   1.437       .  S
C3249      C3250   1.406       .  A
C3249      H3254   1.084       .  S
C3250      C3255   1.491       .  S
C3250      C3251   1.409       .  A
C3251      C3252   1.405       .  A
C3251      N3256   1.438       .  S
C3252      H3257   1.084       .  S
N3253      H3273   1.045       .  S
N3253      H3274   1.046       .  S
C3255      C3258   1.404       .  A
C3255      C3262   1.410       .  A
N3256      H3271   1.045       .  S
N3256      H3272   1.046       .  S
C3258      C3259   1.407       .  A
C3258      H3263   1.083       .  S
C3259      C3260   1.415       .  A
C3259      N3264   1.438       .  S
C3260      C3261   1.406       .  A
C3261      C3262   1.406       .  A
C3261      H3265   1.081       .  S
C3262      N3266   1.438       .  S
N3264      H3267   1.046       .  S
N3264      H3268   1.046       .  S
N3266      H3269   1.045       .  S
N3266      H3270   1.046       .  S
C3275      C3276   1.420       .  A
C3275      C3280   1.411       .  A
C3276      C3277   1.399   1_455  A
C3276      N3281   1.434       .  S
C3277      C3278   1.397   1_556  A
C3277      H3282   1.084       .  S
C3278      C3283   1.481       .  S
C3278      C3279   1.408   1_655  A
C3279      C3280   1.407   1_554  A
C3279      N3284   1.438       .  S
C3280      H3285   1.076       .  S
N3281      H3301   1.046       .  S
N3281      H3302   1.046   1_455  S
C3283      C3286   1.397       .  A
C3283      C3290   1.409       .  A
N3284      H3299   1.045       .  S
N3284      H3300   1.046       .  S
C3286      C3287   1.398       .  A
C3286      H3291   1.084   1_655  S
C3287      C3288   1.419       .  A
C3287      N3292   1.434       .  S
C3288      C3289   1.411       .  A
C3289      C3290   1.406       .  A
C3289      H3293   1.076       .  S
C3290      N3294   1.438   1_554  S
N3292      H3295   1.045       .  S
N3292      H3296   1.046       .  S
N3294      H3297   1.045       .  S
N3294      H3298   1.046       .  S
C3303      C3304   1.414       .  A
C3303      C3308   1.402       .  A
C3304      C3305   1.402       .  A
C3304      N3309   1.433       .  S
C3305      C3306   1.399       .  A
C3305      H3310   1.084       .  S
C3306      C3311   1.471       .  S
C3306      C3307   1.407       .  A
C3307      C3308   1.399       .  A
C3307      N3312   1.438       .  S
C3308      H3313   1.084       .  S
N3309      H3329   1.046       .  S
N3309      H3330   1.046       .  S
C3311      C3314   1.398       .  A
C3311      C3318   1.406       .  A
N3312      H3327   1.045       .  S
N3312      H3328   1.046       .  S
C3314      C3315   1.398       .  A
C3314      H3319   1.084       .  S
C3315      C3316   1.416       .  A
C3315      N3320   1.439       .  S
C3316      C3317   1.407       .  A
C3317      C3318   1.406       .  A
C3317      H3321   1.083       .  S
C3318      N3322   1.437       .  S
N3320      H3323   1.046       .  S
N3320      H3324   1.046       .  S
N3322      H3325   1.046       .  S
N3322      H3326   1.045       .  S
C3331      C3332   1.417       .  A
C3331      C3336   1.409       .  A
C3332      C3333   1.411   1_554  A
C3332      N3337   1.437       .  S
C3333      C3334   1.403       .  A
C3333      H3338   1.084       .  S
C3334      C3339   1.488       .  S
C3334      C3335   1.407       .  A
C3335      C3336   1.408   1_556  A
C3335      N3340   1.437       .  S
C3336      H3341   1.083       .  S
N3337      H3357   1.046       .  S
N3337      H3358   1.046       .  S
C3339      C3342   1.402       .  A
C3339      C3346   1.410       .  A
N3340      H3355   1.046       .  S
N3340      H3356   1.046       .  S
C3342      C3343   1.409       .  A
C3342      H3347   1.084       .  S
C3343      C3344   1.415       .  A
C3343      N3348   1.438       .  S
C3344      C3345   1.406       .  A
C3345      C3346   1.410       .  A
C3345      H3349   1.084       .  S
C3346      N3350   1.437       .  S
N3348      H3351   1.046       .  S
N3348      H3352   1.046       .  S
N3350      H3353   1.046       .  S
N3350      H3354   1.045       .  S
C3359      C3360   1.412       .  A
C3359      C3364   1.407       .  A
C3360      C3361   1.406       .  A
C3360      N3365   1.437       .  S
C3361      C3362   1.404       .  A
C3361      H3366   1.084       .  S
C3362      C3367   1.480       .  S
C3362      C3363   1.406       .  A
C3363      C3364   1.400       .  A
C3363      N3368   1.438       .  S
C3364      H3369   1.083       .  S
N3365      H3385   1.046       .  S
N3365      H3386   1.046       .  S
C3367      C3370   1.403       .  A
C3367      C3374   1.406       .  A
N3368      H3383   1.046       .  S
N3368      H3384   1.045       .  S
C3370      C3371   1.407       .  A
C3370      H3375   1.084       .  S
C3371      C3372   1.414       .  A
C3371      N3376   1.437       .  S
C3372      C3373   1.408       .  A
C3373      C3374   1.402       .  A
C3373      H3377   1.083       .  S
C3374      N3378   1.438       .  S
N3376      H3379   1.046       .  S
N3376      H3380   1.046       .  S
N3378      H3381   1.045       .  S
N3378      H3382   1.046       .  S
C3387      C3388   1.417       .  A
C3387      C3392   1.405       .  A
C3388      C3389   1.407       .  A
C3388      N3393   1.438       .  S
C3389      C3390   1.402       .  A
C3389      H3394   1.084       .  S
C3390      C3395   1.486       .  S
C3390      C3391   1.409       .  A
C3391      C3392   1.406       .  A
C3391      N3396   1.437       .  S
C3392      H3397   1.083       .  S
N3393      H3413   1.045       .  S
N3393      H3414   1.046       .  S
C3395      C3398   1.402       .  A
C3395      C3402   1.408       .  A
N3396      H3411   1.046       .  S
N3396      H3412   1.046       .  S
C3398      C3399   1.404       .  A
C3398      H3403   1.084       .  S
C3399      C3400   1.421       .  A
C3399      N3404   1.439       .  S
C3400      C3401   1.407       .  A
C3401      C3402   1.406       .  A
C3401      H3405   1.080       .  S
C3402      N3406   1.438       .  S
N3404      H3407   1.046       .  S
N3404      H3408   1.041       .  S
N3406      H3409   1.045       .  S
N3406      H3410   1.046       .  S
C3415      C3416   1.416       .  A
C3415      C3420   1.405       .  A
C3416      C3417   1.404       .  A
C3416      N3421   1.438       .  S
C3417      C3418   1.400       .  A
C3417      H3422   1.084       .  S
C3418      C3423   1.474       .  S
C3418      C3419   1.406       .  A
C3419      C3420   1.401       .  A
C3419      N3424   1.438       .  S
C3420      H3425   1.083       .  S
N3421      H3441   1.046       .  S
N3421      H3442   1.046       .  S
C3423      C3426   1.399       .  A
C3423      C3430   1.407       .  A
N3424      H3439   1.046       .  S
N3424      H3440   1.046       .  S
C3426      C3427   1.399       .  A
C3426      H3431   1.084       .  S
C3427      C3428   1.414       .  A
C3427      N3432   1.438       .  S
C3428      C3429   1.406       .  A
C3429      C3430   1.404       .  A
C3429      H3433   1.084       .  S
C3430      N3434   1.437       .  S
N3432      H3435   1.046   1_455  S
N3432      H3436   1.046       .  S
N3434      H3437   1.046       .  S
N3434      H3438   1.046       .  S
C3443      C3444   1.415       .  A
C3443      C3448   1.406       .  A
C3444      C3445   1.402       .  A
C3444      N3449   1.433       .  S
C3445      C3446   1.398       .  A
C3445      H3450   1.084       .  S
C3446      C3451   1.478       .  S
C3446      C3447   1.409       .  A
C3447      C3448   1.409       .  A
C3447      N3452   1.437       .  S
C3448      H3453   1.083       .  S
N3449      H3469   1.046       .  S
N3449      H3470   1.045       .  S
C3451      C3454   1.400       .  A
C3451      C3458   1.406       .  A
N3452      H3467   1.046       .  S
N3452      H3468   1.045       .  S
C3454      C3455   1.407       .  A
C3454      H3459   1.084       .  S
C3455      C3456   1.416       .  A
C3455      N3460   1.437       .  S
C3456      C3457   1.408       .  A
C3457      C3458   1.406       .  A
C3457      H3461   1.083       .  S
C3458      N3462   1.438       .  S
N3460      H3463   1.046       .  S
N3460      H3464   1.046       .  S
N3462      H3465   1.046       .  S
N3462      H3466   1.045       .  S
C3471      C3472   1.413       .  A
C3471      C3476   1.406       .  A
C3472      C3473   1.408       .  A
C3472      N3477   1.438       .  S
C3473      C3474   1.404       .  A
C3473      H3478   1.084       .  S
C3474      C3479   1.486       .  S
C3474      C3475   1.408       .  A
C3475      C3476   1.404       .  A
C3475      N3480   1.438       .  S
C3476      H3481   1.084       .  S
N3477      H3497   1.046       .  S
N3477      H3498   1.046       .  S
C3479      C3482   1.405       .  A
C3479      C3486   1.408       .  A
N3480      H3495   1.046       .  S
N3480      H3496   1.045       .  S
C3482      C3483   1.406       .  A
C3482      H3487   1.084       .  S
C3483      C3484   1.411       .  A
C3483      N3488   1.432       .  S
C3484      C3485   1.408       .  A
C3485      C3486   1.405       .  A
C3485      H3489   1.083       .  S
C3486      N3490   1.438       .  S
N3488      H3491   1.046       .  S
N3488      H3492   1.046       .  S
N3490      H3493   1.046       .  S
N3490      H3494   1.046       .  S
C3499      C3500   1.413       .  A
C3499      C3504   1.409       .  A
C3500      C3501   1.405       .  A
C3500      N3505   1.432       .  S
C3501      C3502   1.403       .  A
C3501      H3506   1.084       .  S
C3502      C3507   1.490       .  S
C3502      C3503   1.410       .  A
C3503      C3504   1.411       .  A
C3503      N3508   1.437       .  S
C3504      H3509   1.083       .  S
N3505      H3525   1.046   1_455  S
N3505      H3526   1.046   1_455  S
C3507      C3510   1.407       .  A
C3507      C3514   1.407       .  A
N3508      H3523   1.046       .  S
N3508      H3524   1.046       .  S
C3510      C3511   1.415       .  A
C3510      H3515   1.083       .  S
C3511      C3512   1.411       .  A
C3511      N3516   1.436       .  S
C3512      C3513   1.409       .  A
C3513      C3514   1.403       .  A
C3513      H3517   1.083       .  S
C3514      N3518   1.438       .  S
N3516      H3519   1.046       .  S
N3516      H3520   1.045       .  S
N3518      H3521   1.046       .  S
N3518      H3522   1.046       .  S
C3527      C3528   1.415       .  A
C3527      C3532   1.406       .  A
C3528      C3529   1.405       .  A
C3528      N3533   1.438       .  S
C3529      C3530   1.402       .  A
C3529      H3534   1.084       .  S
C3530      C3535   1.488       .  S
C3530      C3531   1.411       .  A
C3531      C3532   1.409       .  A
C3531      N3536   1.438       .  S
C3532      H3537   1.083       .  S
N3533      H3553   1.045       .  S
N3533      H3554   1.046       .  S
C3535      C3538   1.402       .  A
C3535      C3542   1.411       .  A
N3536      H3551   1.046       .  S
N3536      H3552   1.046       .  S
C3538      C3539   1.407       .  A
C3538      H3543   1.084       .  S
C3539      C3540   1.418       .  A
C3539      N3544   1.438       .  S
C3540      C3541   1.404       .  A
C3541      C3542   1.406       .  A
C3541      H3545   1.083       .  S
C3542      N3546   1.438       .  S
N3544      H3547   1.046       .  S
N3544      H3548   1.046       .  S
N3546      H3549   1.046       .  S
N3546      H3550   1.046       .  S
C3555      C3556   1.415       .  A
C3555      C3560   1.405       .  A
C3556      C3557   1.407       .  A
C3556      N3561   1.432       .  S
C3557      C3558   1.400       .  A
C3557      H3562   1.084       .  S
C3558      C3563   1.485       .  S
C3558      C3559   1.407       .  A
C3559      C3560   1.407       .  A
C3559      N3564   1.432       .  S
C3560      H3565   1.084       .  S
N3561      H3581   1.046       .  S
N3561      H3582   1.045       .  S
C3563      C3566   1.401       .  A
C3563      C3570   1.407       .  A
N3564      H3579   1.046       .  S
N3564      H3580   1.045       .  S
C3566      C3567   1.410       .  A
C3566      H3571   1.084       .  S
C3567      C3568   1.417       .  A
C3567      N3572   1.437       .  S
C3568      C3569   1.408       .  A
C3569      C3570   1.408       .  A
C3569      H3573   1.083       .  S
C3570      N3574   1.438       .  S
N3572      H3575   1.046       .  S
N3572      H3576   1.046       .  S
N3574      H3577   1.046       .  S
N3574      H3578   1.045       .  S
C3583      C3584   1.413       .  A
C3583      C3588   1.406       .  A
C3584      C3585   1.405       .  A
C3584      N3589   1.429       .  S
C3585      C3586   1.402       .  A
C3585      H3590   1.084       .  S
C3586      C3591   1.497       .  S
C3586      C3587   1.414       .  A
C3587      C3588   1.412       .  A
C3587      N3592   1.437       .  S
C3588      H3593   1.084       .  S
N3589      H3609   1.045       .  S
N3589      H3610   1.046       .  S
C3591      C3594   1.405       .  A
C3591      C3598   1.414       .  A
N3592      H3607   1.045       .  S
N3592      H3608   1.046       .  S
C3594      C3595   1.406       .  A
C3594      H3599   1.084       .  S
C3595      C3596   1.411       .  A
C3595      N3600   1.432       .  S
C3596      C3597   1.409       .  A
C3597      C3598   1.413       .  A
C3597      H3601   1.083       .  S
C3598      N3602   1.438       .  S
N3600      H3603   1.046       .  S
N3600      H3604   1.045       .  S
N3602      H3605   1.046       .  S
N3602      H3606   1.045       .  S
C3611      C3612   1.417       .  A
C3611      C3616   1.404       .  A
C3612      C3613   1.406       .  A
C3612      N3617   1.438       .  S
C3613      C3614   1.401       .  A
C3613      H3618   1.084       .  S
C3614      C3619   1.490       .  S
C3614      C3615   1.413       .  A
C3615      C3616   1.409       .  A
C3615      N3620   1.438       .  S
C3616      H3621   1.083       .  S
N3617      H3637   1.046       .  S
N3617      H3638   1.045       .  S
C3619      C3622   1.399       .  A
C3619      C3626   1.413       .  A
N3620      H3635   1.046       .  S
N3620      H3636   1.045       .  S
C3622      C3623   1.404       .  A
C3622      H3627   1.084       .  S
C3623      C3624   1.417       .  A
C3623      N3628   1.438       .  S
C3624      C3625   1.407       .  A
C3625      C3626   1.412       .  A
C3625      H3629   1.083       .  S
C3626      N3630   1.438       .  S
N3628      H3631   1.045       .  S
N3628      H3632   1.046       .  S
N3630      H3633   1.046       .  S
N3630      H3634   1.046       .  S
C3639      C3640   1.415       .  A
C3639      C3644   1.404       .  A
C3640      C3641   1.405       .  A
C3640      N3645   1.438       .  S
C3641      C3642   1.401       .  A
C3641      H3646   1.084       .  S
C3642      C3647   1.482       .  S
C3642      C3643   1.410       .  A
C3643      C3644   1.406       .  A
C3643      N3648   1.438       .  S
C3644      H3649   1.084       .  S
N3645      H3665   1.045       .  S
N3645      H3666   1.046       .  S
C3647      C3650   1.402       .  A
C3647      C3654   1.409       .  A
N3648      H3663   1.046       .  S
N3648      H3664   1.045       .  S
C3650      C3651   1.405       .  A
C3650      H3655   1.084       .  S
C3651      C3652   1.413       .  A
C3651      N3656   1.438       .  S
C3652      C3653   1.407       .  A
C3653      C3654   1.406       .  A
C3653      H3657   1.084       .  S
C3654      N3658   1.438       .  S
N3656      H3659   1.046       .  S
N3656      H3660   1.046       .  S
N3658      H3661   1.046       .  S
N3658      H3662   1.046       .  S
C3667      C3668   1.417       .  A
C3667      C3672   1.409       .  A
C3668      C3669   1.407       .  A
C3668      N3673   1.438       .  S
C3669      C3670   1.402       .  A
C3669      H3674   1.084       .  S
C3670      C3675   1.485       .  S
C3670      C3671   1.407       .  A
C3671      C3672   1.409       .  A
C3671      N3676   1.437       .  S
C3672      H3677   1.083       .  S
N3673      H3693   1.045       .  S
N3673      H3694   1.046       .  S
C3675      C3678   1.406       .  A
C3675      C3682   1.406       .  A
N3676      H3691   1.046       .  S
N3676      H3692   1.046       .  S
C3678      C3679   1.410       .  A
C3678      H3683   1.083       .  S
C3679      C3680   1.406       .  A
C3679      N3684   1.431       .  S
C3680      C3681   1.412       .  A
C3681      C3682   1.403       .  A
C3681      H3685   1.083       .  S
C3682      N3686   1.438       .  S
N3684      H3687   1.046       .  S
N3684      H3688   1.045       .  S
N3686      H3689   1.046       .  S
N3686      H3690   1.045       .  S
C3695      C3696   1.419       .  A
C3695      C3700   1.412       .  A
C3696      C3697   1.396       .  A
C3696      N3701   1.434       .  S
C3697      C3698   1.395       .  A
C3697      H3702   1.084   1_565  S
C3698      C3703   1.475   1_564  S
C3698      C3699   1.407       .  A
C3699      C3700   1.407       .  A
C3699      N3704   1.438   1_554  S
C3700      H3705   1.076       .  S
N3701      H3721   1.046   1_565  S
N3701      H3722   1.046       .  S
C3703      C3706   1.394       .  A
C3703      C3710   1.407       .  A
N3704      H3719   1.046       .  S
N3704      H3720   1.045       .  S
C3706      C3707   1.400       .  A
C3706      H3711   1.084       .  S
C3707      C3708   1.421       .  A
C3707      N3712   1.432       .  S
C3708      C3709   1.411       .  A
C3709      C3710   1.404       .  A
C3709      H3713   1.075       .  S
C3710      N3714   1.439       .  S
N3712      H3715   1.045       .  S
N3712      H3716   1.046       .  S
N3714      H3717   1.045       .  S
N3714      H3718   1.046   1_545  S
C3723      C3724   1.412       .  A
C3723      C3728   1.403       .  A
C3724      C3725   1.400       .  A
C3724      N3729   1.438       .  S
C3725      C3726   1.400       .  A
C3725      H3730   1.084       .  S
C3726      C3731   1.472       .  S
C3726      C3727   1.408       .  A
C3727      C3728   1.401       .  A
C3727      N3732   1.438       .  S
C3728      H3733   1.084       .  S
N3729      H3749   1.046       .  S
N3729      H3750   1.046       .  S
C3731      C3734   1.401       .  A
C3731      C3738   1.408       .  A
N3732      H3747   1.046       .  S
N3732      H3748   1.046       .  S
C3734      C3735   1.404       .  A
C3734      H3739   1.084       .  S
C3735      C3736   1.413       .  A
C3735      N3740   1.438       .  S
C3736      C3737   1.402       .  A
C3737      C3738   1.397       .  A
C3737      H3741   1.084       .  S
C3738      N3742   1.439       .  S
N3740      H3743   1.046       .  S
N3740      H3744   1.046       .  S
N3742      H3745   1.046       .  S
N3742      H3746   1.046       .  S
C3751      C3752   1.419       .  A
C3751      C3756   1.406       .  A
C3752      C3753   1.408       .  A
C3752      N3757   1.438   1_556  S
C3753      C3754   1.403       .  A
C3753      H3758   1.084       .  S
C3754      C3759   1.498       .  S
C3754      C3755   1.414       .  A
C3755      C3756   1.411       .  A
C3755      N3760   1.437       .  S
C3756      H3761   1.083       .  S
N3757      H3777   1.046       .  S
N3757      H3778   1.046       .  S
C3759      C3762   1.404       .  A
C3759      C3766   1.415       .  A
N3760      H3775   1.046       .  S
N3760      H3776   1.046       .  S
C3762      C3763   1.406       .  A
C3762      H3767   1.084       .  S
C3763      C3764   1.414       .  A
C3763      N3768   1.432       .  S
C3764      C3765   1.406       .  A
C3765      C3766   1.411       .  A
C3765      H3769   1.083       .  S
C3766      N3770   1.438       .  S
N3768      H3771   1.045       .  S
N3768      H3772   1.046       .  S
N3770      H3773   1.046       .  S
N3770      H3774   1.046       .  S
C3779      C3780   1.416       .  A
C3779      C3784   1.409       .  A
C3780      C3781   1.408       .  A
C3780      N3785   1.437       .  S
C3781      C3782   1.401       .  A
C3781      H3786   1.084       .  S
C3782      C3787   1.482       .  S
C3782      C3783   1.407       .  A
C3783      C3784   1.407       .  A
C3783      N3788   1.438       .  S
C3784      H3789   1.083       .  S
N3785      H3805   1.046       .  S
N3785      H3806   1.046       .  S
C3787      C3790   1.401       .  A
C3787      C3794   1.409       .  A
N3788      H3803   1.046       .  S
N3788      H3804   1.045       .  S
C3790      C3791   1.409       .  A
C3790      H3795   1.084       .  S
C3791      C3792   1.415       .  A
C3791      N3796   1.438       .  S
C3792      C3793   1.403       .  A
C3793      C3794   1.406       .  A
C3793      H3797   1.084       .  S
C3794      N3798   1.438       .  S
N3796      H3799   1.046       .  S
N3796      H3800   1.045       .  S
N3798      H3801   1.046       .  S
N3798      H3802   1.045       .  S
C3807      C3808   1.420       .  A
C3807      C3812   1.404       .  A
C3808      C3809   1.402       .  A
C3808      N3813   1.439       .  S
C3809      C3810   1.397       .  A
C3809      H3814   1.084       .  S
C3810      C3815   1.486       .  S
C3810      C3811   1.413       .  A
C3811      C3812   1.415       .  A
C3811      N3816   1.437       .  S
C3812      H3817   1.083       .  S
N3813      H3833   1.045       .  S
N3813      H3834   1.046       .  S
C3815      C3818   1.401       .  A
C3815      C3822   1.408       .  A
N3816      H3831   1.046       .  S
N3816      H3832   1.045       .  S
C3818      C3819   1.411       .  A
C3818      H3823   1.084       .  S
C3819      C3820   1.420       .  A
C3819      N3824   1.438       .  S
C3820      C3821   1.407       .  A
C3821      C3822   1.408       .  A
C3821      H3825   1.083       .  S
C3822      N3826   1.438       .  S
N3824      H3827   1.046       .  S
N3824      H3828   1.045       .  S
N3826      H3829   1.045       .  S
N3826      H3830   1.046       .  S
C3835      C3836   1.413       .  A
C3835      C3840   1.407       .  A
C3836      C3837   1.399       .  A
C3836      N3841   1.438       .  S
C3837      C3838   1.401       .  A
C3837      H3842   1.084       .  S
C3838      C3843   1.474       .  S
C3838      C3839   1.407       .  A
C3839      C3840   1.402       .  A
C3839      N3844   1.438       .  S
C3840      H3845   1.084       .  S
N3841      H3861   1.045       .  S
N3841      H3862   1.046       .  S
C3843      C3846   1.401       .  A
C3843      C3850   1.409       .  A
N3844      H3859   1.046       .  S
N3844      H3860   1.045       .  S
C3846      C3847   1.401       .  A
C3846      H3851   1.084       .  S
C3847      C3848   1.412       .  A
C3847      N3852   1.438       .  S
C3848      C3849   1.402       .  A
C3849      C3850   1.401       .  A
C3849      H3853   1.084       .  S
C3850      N3854   1.438       .  S
N3852      H3855   1.046       .  S
N3852      H3856   1.046       .  S
N3854      H3857   1.046       .  S
N3854      H3858   1.045       .  S
C3863      C3864   1.412       .  A
C3863      C3868   1.403       .  A
C3864      C3865   1.404       .  A
C3864      N3869   1.438       .  S
C3865      C3866   1.403       .  A
C3865      H3870   1.084       .  S
C3866      C3871   1.485       .  S
C3866      C3867   1.412       .  A
C3867      C3868   1.406       .  A
C3867      N3872   1.438       .  S
C3868      H3873   1.084   1_565  S
N3869      H3889   1.046       .  S
N3869      H3890   1.046       .  S
C3871      C3874   1.404       .  A
C3871      C3878   1.409       .  A
N3872      H3887   1.046       .  S
N3872      H3888   1.045       .  S
C3874      C3875   1.407       .  A
C3874      H3879   1.084       .  S
C3875      C3876   1.413       .  A
C3875      N3880   1.437       .  S
C3876      C3877   1.407       .  A
C3877      C3878   1.402       .  A
C3877      H3881   1.083       .  S
C3878      N3882   1.438       .  S
N3880      H3883   1.046       .  S
N3880      H3884   1.046       .  S
N3882      H3885   1.046       .  S
N3882      H3886   1.046       .  S
C3891      C3892   1.415       .  A
C3891      C3896   1.405       .  A
C3892      C3893   1.404       .  A
C3892      N3897   1.432       .  S
C3893      C3894   1.401       .  A
C3893      H3898   1.084       .  S
C3894      C3899   1.492       .  S
C3894      C3895   1.414       .  A
C3895      C3896   1.410       .  A
C3895      N3900   1.438       .  S
C3896      H3901   1.083       .  S
N3897      H3917   1.046       .  S
N3897      H3918   1.045       .  S
C3899      C3902   1.400       .  A
C3899      C3906   1.413       .  A
N3900      H3915   1.046       .  S
N3900      H3916   1.046       .  S
C3902      C3903   1.406       .  A
C3902      H3907   1.084       .  S
C3903      C3904   1.420       .  A
C3903      N3908   1.438       .  S
C3904      C3905   1.406       .  A
C3905      C3906   1.411       .  A
C3905      H3909   1.083       .  S
C3906      N3910   1.437       .  S
N3908      H3911   1.046       .  S
N3908      H3912   1.046       .  S
N3910      H3913   1.046       .  S
N3910      H3914   1.045       .  S
C3919      C3920   1.412       .  A
C3919      C3924   1.401       .  A
C3920      C3921   1.401       .  A
C3920      N3925   1.432       .  S
C3921      C3922   1.402       .  A
C3921      H3926   1.084       .  S
C3922      C3927   1.500       .  S
C3922      C3923   1.419       .  A
C3923      C3924   1.415       .  A
C3923      N3928   1.437       .  S
C3924      H3929   1.084       .  S
N3925      H3945   1.045       .  S
N3925      H3946   1.045       .  S
C3927      C3930   1.403       .  A
C3927      C3934   1.415       .  A
N3928      H3943   1.046       .  S
N3928      H3944   1.045       .  S
C3930      C3931   1.410       .  A
C3930      H3935   1.083       .  S
C3931      C3932   1.420       .  A
C3931      N3936   1.438       .  S
C3932      C3933   1.405       .  A
C3933      C3934   1.411       .  A
C3933      H3937   1.083       .  S
C3934      N3938   1.438       .  S
N3936      H3939   1.046       .  S
N3936      H3940   1.046       .  S
N3938      H3941   1.045       .  S
N3938      H3942   1.046       .  S
C3947      C3948   1.415       .  A
C3947      C3952   1.404       .  A
C3948      C3949   1.406       .  A
C3948      N3953   1.438       .  S
C3949      C3950   1.402       .  A
C3949      H3954   1.084       .  S
C3950      C3955   1.479       .  S
C3950      C3951   1.409       .  A
C3951      C3952   1.398       .  A
C3951      N3956   1.439       .  S
C3952      H3957   1.083       .  S
N3953      H3973   1.046       .  S
N3953      H3974   1.046       .  S
C3955      C3958   1.401       .  A
C3955      C3962   1.410       .  A
N3956      H3971   1.046   1_556  S
N3956      H3972   1.045       .  S
C3958      C3959   1.398       .  A
C3958      H3963   1.084       .  S
C3959      C3960   1.411       .  A
C3959      N3964   1.433       .  S
C3960      C3961   1.405       .  A
C3961      C3962   1.404       .  A
C3961      H3965   1.083       .  S
C3962      N3966   1.438       .  S
N3964      H3967   1.045       .  S
N3964      H3968   1.046       .  S
N3966      H3969   1.046       .  S
N3966      H3970   1.046       .  S
C3975      C3976   1.415       .  A
C3975      C3980   1.408       .  A
C3976      C3977   1.407       .  A
C3976      N3981   1.437       .  S
C3977      C3978   1.402       .  A
C3977      H3982   1.084       .  S
C3978      C3983   1.479       .  S
C3978      C3979   1.406       .  A
C3979      C3980   1.403       .  A
C3979      N3984   1.438       .  S
C3980      H3985   1.083       .  S
N3981      H4001   1.045       .  S
N3981      H4002   1.046       .  S
C3983      C3986   1.399       .  A
C3983      C3990   1.408       .  A
N3984      H3999   1.046       .  S
N3984      H4000   1.046       .  S
C3986      C3987   1.405       .  A
C3986      H3991   1.084       .  S
C3987      C3988   1.418       .  A
C3987      N3992   1.438       .  S
C3988      C3989   1.406       .  A
C3989      C3990   1.406       .  A
C3989      H3993   1.083       .  S
C3990      N3994   1.438       .  S
N3992      H3995   1.046       .  S
N3992      H3996   1.046       .  S
N3994      H3997   1.045       .  S
N3994      H3998   1.046       .  S
C4003      C4004   1.416       .  A
C4003      C4008   1.405       .  A
C4004      C4005   1.401       .  A
C4004      N4009   1.433   1_554  S
C4005      C4006   1.400       .  A
C4005      H4010   1.084       .  S
C4006      C4011   1.488       .  S
C4006      C4007   1.413       .  A
C4007      C4008   1.410       .  A
C4007      N4012   1.437       .  S
C4008      H4013   1.083       .  S
N4009      H4029   1.046       .  S
N4009      H4030   1.046       .  S
C4011      C4014   1.403       .  A
C4011      C4018   1.412       .  A
N4012      H4027   1.046       .  S
N4012      H4028   1.045       .  S
C4014      C4015   1.407       .  A
C4014      H4019   1.084       .  S
C4015      C4016   1.414       .  A
C4015      N4020   1.438       .  S
C4016      C4017   1.404       .  A
C4017      C4018   1.405       .  A
C4017      H4021   1.084       .  S
C4018      N4022   1.438       .  S
N4020      H4023   1.046       .  S
N4020      H4024   1.046       .  S
N4022      H4025   1.046       .  S
N4022      H4026   1.045       .  S
C4031      C4032   1.416       .  A
C4031      C4036   1.404       .  A
C4032      C4033   1.407       .  A
C4032      N4037   1.438       .  S
C4033      C4034   1.403       .  A
C4033      H4038   1.083       .  S
C4034      C4039   1.495       .  S
C4034      C4035   1.415       .  A
C4035      C4036   1.411       .  A
C4035      N4040   1.438       .  S
C4036      H4041   1.083       .  S
N4037      H4057   1.045       .  S
N4037      H4058   1.046       .  S
C4039      C4042   1.403       .  A
C4039      C4046   1.411       .  A
N4040      H4055   1.046       .  S
N4040      H4056   1.046       .  S
C4042      C4043   1.407       .  A
C4042      H4047   1.084       .  S
C4043      C4044   1.415       .  A
C4043      N4048   1.430       .  S
C4044      C4045   1.410       .  A
C4045      C4046   1.408       .  A
C4045      H4049   1.083       .  S
C4046      N4050   1.438       .  S
N4048      H4051   1.045       .  S
N4048      H4052   1.045       .  S
N4050      H4053   1.046       .  S
N4050      H4054   1.045       .  S
C4059      C4060   1.416       .  A
C4059      C4064   1.407       .  A
C4060      C4061   1.413       .  A
C4060      N4065   1.437       .  S
C4061      C4062   1.406       .  A
C4061      H4066   1.084       .  S
C4062      C4067   1.489       .  S
C4062      C4063   1.407       .  A
C4063      C4064   1.402       .  A
C4063      N4068   1.438       .  S
C4064      H4069   1.083       .  S
N4065      H4085   1.046       .  S
N4065      H4086   1.046       .  S
C4067      C4070   1.403       .  A
C4067      C4074   1.409       .  A
N4068      H4083   1.045       .  S
N4068      H4084   1.046       .  S
C4070      C4071   1.407       .  A
C4070      H4075   1.084       .  S
C4071      C4072   1.414       .  A
C4071      N4076   1.437       .  S
C4072      C4073   1.409       .  A
C4073      C4074   1.409       .  A
C4073      H4077   1.083       .  S
C4074      N4078   1.438       .  S
N4076      H4079   1.045       .  S
N4076      H4080   1.046       .  S
N4078      H4081   1.045       .  S
N4078      H4082   1.046       .  S
C4087      C4088   1.414       .  A
C4087      C4092   1.406       .  A
C4088      C4089   1.404       .  A
C4088      N4093   1.432       .  S
C4089      C4090   1.400       .  A
C4089      H4094   1.084       .  S
C4090      C4095   1.480       .  S
C4090      C4091   1.409       .  A
C4091      C4092   1.407       .  A
C4091      N4096   1.438       .  S
C4092      H4097   1.083       .  S
N4093      H4113   1.046       .  S
N4093      H4114   1.046       .  S
C4095      C4098   1.402       .  A
C4095      C4102   1.406       .  A
N4096      H4111   1.046       .  S
N4096      H4112   1.045       .  S
C4098      C4099   1.408       .  A
C4098      H4103   1.084       .  S
C4099      C4100   1.415       .  A
C4099      N4104   1.437       .  S
C4100      C4101   1.409       .  A
C4101      C4102   1.405       .  A
C4101      H4105   1.083       .  S
C4102      N4106   1.438       .  S
N4104      H4107   1.046       .  S
N4104      H4108   1.045       .  S
N4106      H4109   1.046       .  S
N4106      H4110   1.045       .  S
C4115      C4116   1.412       .  A
C4115      C4120   1.406       .  A
C4116      C4117   1.409       .  A
C4116      N4121   1.437       .  S
C4117      C4118   1.405       .  A
C4117      H4122   1.084       .  S
C4118      C4123   1.488       .  S
C4118      C4119   1.409       .  A
C4119      C4120   1.406       .  A
C4119      N4124   1.438       .  S
C4120      H4125   1.084       .  S
N4121      H4141   1.046       .  S
N4121      H4142   1.046       .  S
C4123      C4126   1.400       .  A
C4123      C4130   1.410       .  A
N4124      H4139   1.046       .  S
N4124      H4140   1.046       .  S
C4126      C4127   1.403       .  A
C4126      H4131   1.084       .  S
C4127      C4128   1.415       .  A
C4127      N4132   1.430       .  S
C4128      C4129   1.409       .  A
C4129      C4130   1.409       .  A
C4129      H4133   1.083       .  S
C4130      N4134   1.437       .  S
N4132      H4135   1.046       .  S
N4132      H4136   1.046       .  S
N4134      H4137   1.046       .  S
N4134      H4138   1.046       .  S
C4143      C4144   1.417       .  A
C4143      C4148   1.416       .  A
C4144      C4145   1.401       .  A
C4144      N4149   1.433       .  S
C4145      C4146   1.399   1_565  A
C4145      H4150   1.084   1_455  S
C4146      C4151   1.483       .  S
C4146      C4147   1.406       .  A
C4147      C4148   1.409   1_545  A
C4147      N4152   1.438       .  S
C4148      H4153   1.075       .  S
N4149      H4169   1.046       .  S
N4149      H4170   1.046       .  S
C4151      C4154   1.399   1_455  A
C4151      C4158   1.405   1_455  A
N4152      H4167   1.046       .  S
N4152      H4168   1.045       .  S
C4154      C4155   1.407       .  A
C4154      H4159   1.084       .  S
C4155      C4156   1.420       .  A
C4155      N4160   1.432       .  S
C4156      C4157   1.414       .  A
C4157      C4158   1.404       .  A
C4157      H4161   1.074       .  S
C4158      N4162   1.439   1_655  S
N4160      H4163   1.045       .  S
N4160      H4164   1.046       .  S
N4162      H4165   1.045       .  S
N4162      H4166   1.046       .  S
C4171      C4172   1.414       .  A
C4171      C4176   1.404       .  A
C4172      C4173   1.404       .  A
C4172      N4177   1.438       .  S
C4173      C4174   1.403       .  A
C4173      H4178   1.084       .  S
C4174      C4179   1.484       .  S
C4174      C4175   1.411       .  A
C4175      C4176   1.403       .  A
C4175      N4180   1.438       .  S
C4176      H4181   1.083       .  S
N4177      H4197   1.046       .  S
N4177      H4198   1.046       .  S
C4179      C4182   1.404       .  A
C4179      C4186   1.411       .  A
N4180      H4195   1.046       .  S
N4180      H4196   1.045       .  S
C4182      C4183   1.403       .  A
C4182      H4187   1.084       .  S
C4183      C4184   1.410       .  A
C4183      N4188   1.438       .  S
C4184      C4185   1.403       .  A
C4185      C4186   1.403       .  A
C4185      H4189   1.084       .  S
C4186      N4190   1.438       .  S
N4188      H4191   1.046       .  S
N4188      H4192   1.046       .  S
N4190      H4193   1.046       .  S
N4190      H4194   1.046       .  S
C4199      C4200   1.414   1_545  A
C4199      C4204   1.407   1_545  A
C4200      C4201   1.411       .  A
C4200      N4205   1.437       .  S
C4201      C4202   1.404       .  A
C4201      H4206   1.084       .  S
C4202      C4207   1.484       .  S
C4202      C4203   1.406       .  A
C4203      C4204   1.404       .  A
C4203      N4208   1.438       .  S
C4204      H4209   1.083   1_565  S
N4205      H4225   1.046   1_565  S
N4205      H4226   1.046       .  S
C4207      C4210   1.401       .  A
C4207      C4214   1.407       .  A
N4208      H4223   1.045       .  S
N4208      H4224   1.046       .  S
C4210      C4211   1.408       .  A
C4210      H4215   1.084       .  S
C4211      C4212   1.416       .  A
C4211      N4216   1.438       .  S
C4212      C4213   1.408       .  A
C4213      C4214   1.407       .  A
C4213      H4217   1.083       .  S
C4214      N4218   1.438       .  S
N4216      H4219   1.046       .  S
N4216      H4220   1.045       .  S
N4218      H4221   1.046       .  S
N4218      H4222   1.046       .  S
C4227      C4228   1.419       .  A
C4227      C4232   1.404       .  A
C4228      C4229   1.408       .  A
C4228      N4233   1.438       .  S
C4229      C4230   1.400       .  A
C4229      H4234   1.084       .  S
C4230      C4235   1.482       .  S
C4230      C4231   1.408       .  A
C4231      C4232   1.405       .  A
C4231      N4236   1.438       .  S
C4232      H4237   1.083       .  S
N4233      H4253   1.046       .  S
N4233      H4254   1.046       .  S
C4235      C4238   1.401       .  A
C4235      C4242   1.407       .  A
N4236      H4251   1.045       .  S
N4236      H4252   1.046       .  S
C4238      C4239   1.409       .  A
C4238      H4243   1.084       .  S
C4239      C4240   1.417       .  A
C4239      N4244   1.437       .  S
C4240      C4241   1.407       .  A
C4241      C4242   1.407       .  A
C4241      H4245   1.083       .  S
C4242      N4246   1.438       .  S
N4244      H4247   1.046       .  S
N4244      H4248   1.046       .  S
N4246      H4249   1.045       .  S
N4246      H4250   1.046       .  S
C4255      C4256   1.418       .  A
C4255      C4260   1.407       .  A
C4256      C4257   1.410       .  A
C4256      N4261   1.437       .  S
C4257      C4258   1.402       .  A
C4257      H4262   1.084       .  S
C4258      C4263   1.489       .  S
C4258      C4259   1.410       .  A
C4259      C4260   1.408       .  A
C4259      N4264   1.438       .  S
C4260      H4265   1.083       .  S
N4261      H4281   1.046       .  S
N4261      H4282   1.045       .  S
C4263      C4266   1.397       .  A
C4263      C4270   1.412       .  A
N4264      H4279   1.045       .  S
N4264      H4280   1.046       .  S
C4266      C4267   1.402       .  A
C4266      H4271   1.084       .  S
C4267      C4268   1.419       .  A
C4267      N4272   1.437       .  S
C4268      C4269   1.406       .  A
C4269      C4270   1.414       .  A
C4269      H4273   1.083       .  S
C4270      N4274   1.437       .  S
N4272      H4275   1.046       .  S
N4272      H4276   1.046       .  S
N4274      H4277   1.046       .  S
N4274      H4278   1.046       .  S
C4283      C4284   1.414       .  A
C4283      C4288   1.405       .  A
C4284      C4285   1.401       .  A
C4284      N4289   1.438       .  S
C4285      C4286   1.400       .  A
C4285      H4290   1.084       .  S
C4286      C4291   1.471       .  S
C4286      C4287   1.406       .  A
C4287      C4288   1.401       .  A
C4287      N4292   1.438       .  S
C4288      H4293   1.083       .  S
N4289      H4309   1.045       .  S
N4289      H4310   1.046       .  S
C4291      C4294   1.400       .  A
C4291      C4298   1.408       .  A
N4292      H4307   1.046       .  S
N4292      H4308   1.046       .  S
C4294      C4295   1.404       .  A
C4294      H4299   1.084       .  S
C4295      C4296   1.412       .  A
C4295      N4300   1.438       .  S
C4296      C4297   1.403       .  A
C4297      C4298   1.399       .  A
C4297      H4301   1.084       .  S
C4298      N4302   1.439       .  S
N4300      H4303   1.045       .  S
N4300      H4304   1.046       .  S
N4302      H4305   1.046   1_455  S
N4302      H4306   1.046       .  S
C4311      C4312   1.414       .  A
C4311      C4316   1.408       .  A
C4312      C4313   1.409       .  A
C4312      N4317   1.437       .  S
C4313      C4314   1.406       .  A
C4313      H4318   1.083       .  S
C4314      C4319   1.493       .  S
C4314      C4315   1.411       .  A
C4315      C4316   1.406       .  A
C4315      N4320   1.438       .  S
C4316      H4321   1.084       .  S
N4317      H4337   1.045       .  S
N4317      H4338   1.046       .  S
C4319      C4322   1.405       .  A
C4319      C4326   1.411       .  A
N4320      H4335   1.046       .  S
N4320      H4336   1.046       .  S
C4322      C4323   1.409       .  A
C4322      H4327   1.083       .  S
C4323      C4324   1.415       .  A
C4323      N4328   1.437       .  S
C4324      C4325   1.408       .  A
C4325      C4326   1.406       .  A
C4325      H4329   1.083       .  S
C4326      N4330   1.438       .  S
N4328      H4331   1.046       .  S
N4328      H4332   1.045       .  S
N4330      H4333   1.046       .  S
N4330      H4334   1.046       .  S
C4339      C4340   1.415       .  A
C4339      C4344   1.408       .  A
C4340      C4341   1.409       .  A
C4340      N4345   1.437       .  S
C4341      C4342   1.401       .  A
C4341      H4346   1.084       .  S
C4342      C4347   1.482       .  S
C4342      C4343   1.406       .  A
C4343      C4344   1.406       .  A
C4343      N4348   1.438       .  S
C4344      H4349   1.083       .  S
N4345      H4365   1.046       .  S
N4345      H4366   1.045       .  S
C4347      C4350   1.397       .  A
C4347      C4354   1.410       .  A
N4348      H4363   1.045       .  S
N4348      H4364   1.046       .  S
C4350      C4351   1.405       .  A
C4350      H4355   1.084       .  S
C4351      C4352   1.420       .  A
C4351      N4356   1.438       .  S
C4352      C4353   1.405       .  A
C4353      C4354   1.409       .  A
C4353      H4357   1.083       .  S
C4354      N4358   1.437       .  S
N4356      H4359   1.046       .  S
N4356      H4360   1.046       .  S
N4358      H4361   1.046       .  S
N4358      H4362   1.045       .  S
C4367      C4368   1.410       .  A
C4367      C4372   1.405       .  A
C4368      C4369   1.413       .  A
C4368      N4373   1.437       .  S
C4369      C4370   1.410       .  A
C4369      H4374   1.083       .  S
C4370      C4375   1.500       .  S
C4370      C4371   1.413       .  A
C4371      C4372   1.407       .  A
C4371      N4376   1.438       .  S
C4372      H4377   1.084       .  S
N4373      H4393   1.046       .  S
N4373      H4394   1.046       .  S
C4375      C4378   1.404       .  A
C4375      C4382   1.412       .  A
N4376      H4391   1.046       .  S
N4376      H4392   1.046       .  S
C4378      C4379   1.407       .  A
C4378      H4383   1.084       .  S
C4379      C4380   1.417       .  A
C4379      N4384   1.430       .  S
C4380      C4381   1.409       .  A
C4381      C4382   1.410       .  A
C4381      H4385   1.083       .  S
C4382      N4386   1.437       .  S
N4384      H4387   1.046       .  S
N4384      H4388   1.046       .  S
N4386      H4389   1.045       .  S
N4386      H4390   1.046       .  S
C4395      C4396   1.411       .  A
C4395      C4400   1.402       .  A
C4396      C4397   1.403       .  A
C4396      N4401   1.438       .  S
C4397      C4398   1.401       .  A
C4397      H4402   1.084       .  S
C4398      C4403   1.473       .  S
C4398      C4399   1.409       .  A
C4399      C4400   1.399       .  A
C4399      N4404   1.439       .  S
C4400      H4405   1.084       .  S
N4401      H4421   1.046       .  S
N4401      H4422   1.046       .  S
C4403      C4406   1.400       .  A
C4403      C4410   1.407       .  A
N4404      H4419   1.045   1_565  S
N4404      H4420   1.046       .  S
C4406      C4407   1.403       .  A
C4406      H4411   1.084       .  S
C4407      C4408   1.415       .  A
C4407      N4412   1.438       .  S
C4408      C4409   1.405       .  A
C4409      C4410   1.400       .  A
C4409      H4413   1.083       .  S
C4410      N4414   1.438       .  S
N4412      H4415   1.046       .  S
N4412      H4416   1.046       .  S
N4414      H4417   1.045       .  S
N4414      H4418   1.046       .  S
C4423      C4424   1.412       .  A
C4423      C4428   1.405       .  A
C4424      C4425   1.408       .  A
C4424      N4429   1.437       .  S
C4425      C4426   1.405       .  A
C4425      H4430   1.084       .  S
C4426      C4431   1.483       .  S
C4426      C4427   1.409       .  A
C4427      C4428   1.401       .  A
C4427      N4432   1.438       .  S
C4428      H4433   1.084       .  S
N4429      H4449   1.046       .  S
N4429      H4450   1.046       .  S
C4431      C4434   1.404       .  A
C4431      C4438   1.409       .  A
N4432      H4447   1.046       .  S
N4432      H4448   1.046       .  S
C4434      C4435   1.405       .  A
C4434      H4439   1.084       .  S
C4435      C4436   1.411       .  A
C4435      N4440   1.438       .  S
C4436      C4437   1.406       .  A
C4437      C4438   1.404       .  A
C4437      H4441   1.084       .  S
C4438      N4442   1.438       .  S
N4440      H4443   1.046       .  S
N4440      H4444   1.046       .  S
N4442      H4445   1.046       .  S
N4442      H4446   1.046       .  S
C4451      C4452   1.414       .  A
C4451      C4456   1.407       .  A
C4452      C4453   1.409       .  A
C4452      N4457   1.437       .  S
C4453      C4454   1.405       .  A
C4453      H4458   1.084       .  S
C4454      C4459   1.478       .  S
C4454      C4455   1.405       .  A
C4455      C4456   1.397       .  A
C4455      N4460   1.439       .  S
C4456      H4461   1.083       .  S
N4457      H4477   1.045       .  S
N4457      H4478   1.046       .  S
C4459      C4462   1.403       .  A
C4459      C4466   1.406       .  A
N4460      H4475   1.046       .  S
N4460      H4476   1.045       .  S
C4462      C4463   1.405       .  A
C4462      H4467   1.084       .  S
C4463      C4464   1.414       .  A
C4463      N4468   1.437       .  S
C4464      C4465   1.407       .  A
C4465      C4466   1.400       .  A
C4465      H4469   1.083       .  S
C4466      N4470   1.438       .  S
N4468      H4471   1.046       .  S
N4468      H4472   1.045       .  S
N4470      H4473   1.046       .  S
N4470      H4474   1.045       .  S
C4479      C4480   1.414       .  A
C4479      C4484   1.409       .  A
C4480      C4481   1.407       .  A
C4480      N4485   1.438       .  S
C4481      C4482   1.405       .  A
C4481      H4486   1.084       .  S
C4482      C4487   1.484       .  S
C4482      C4483   1.405       .  A
C4483      C4484   1.405       .  A
C4483      N4488   1.437       .  S
C4484      H4489   1.083       .  S
N4485      H4505   1.045       .  S
N4485      H4506   1.046       .  S
C4487      C4490   1.408       .  A
C4487      C4494   1.406       .  A
N4488      H4503   1.045       .  S
N4488      H4504   1.046       .  S
C4490      C4491   1.413       .  A
C4490      H4495   1.083       .  S
C4491      C4492   1.408       .  A
C4491      N4496   1.436       .  S
C4492      C4493   1.407       .  A
C4493      C4494   1.399       .  A
C4493      H4497   1.084       .  S
C4494      N4498   1.438       .  S
N4496      H4499   1.046       .  S
N4496      H4500   1.045       .  S
N4498      H4501   1.046       .  S
N4498      H4502   1.046       .  S
C4507      C4508   1.411       .  A
C4507      C4512   1.401       .  A
C4508      C4509   1.402       .  A
C4508      N4513   1.438       .  S
C4509      C4510   1.402       .  A
C4509      H4514   1.084       .  S
C4510      C4515   1.471       .  S
C4510      C4511   1.407       .  A
C4511      C4512   1.400       .  A
C4511      N4516   1.437       .  S
C4512      H4517   1.084       .  S
N4513      H4533   1.046       .  S
N4513      H4534   1.046       .  S
C4515      C4518   1.400       .  A
C4515      C4522   1.405       .  A
N4516      H4531   1.045       .  S
N4516      H4532   1.046       .  S
C4518      C4519   1.401       .  A
C4518      H4523   1.084       .  S
C4519      C4520   1.414       .  A
C4519      N4524   1.438       .  S
C4520      C4521   1.406       .  A
C4521      C4522   1.401       .  A
C4521      H4525   1.083       .  S
C4522      N4526   1.438       .  S
N4524      H4527   1.046       .  S
N4524      H4528   1.046       .  S
N4526      H4529   1.046       .  S
N4526      H4530   1.046       .  S
C4535      C4536   1.413       .  A
C4535      C4540   1.408       .  A
C4536      C4537   1.406       .  A
C4536      N4541   1.438       .  S
C4537      C4538   1.402       .  A
C4537      H4542   1.084       .  S
C4538      C4543   1.485       .  S
C4538      C4539   1.408       .  A
C4539      C4540   1.408       .  A
C4539      N4544   1.438       .  S
C4540      H4545   1.084       .  S
N4541      H4561   1.046   1_455  S
N4541      H4562   1.046       .  S
C4543      C4546   1.403       .  A
C4543      C4550   1.409       .  A
N4544      H4559   1.046       .  S
N4544      H4560   1.046       .  S
C4546      C4547   1.409       .  A
C4546      H4551   1.084       .  S
C4547      C4548   1.415       .  A
C4547      N4552   1.438       .  S
C4548      C4549   1.403       .  A
C4549      C4550   1.404       .  A
C4549      H4553   1.084       .  S
C4550      N4554   1.438       .  S
N4552      H4555   1.046       .  S
N4552      H4556   1.045       .  S
N4554      H4557   1.046       .  S
N4554      H4558   1.046       .  S
C4563      C4564   1.415       .  A
C4563      C4568   1.407       .  A
C4564      C4565   1.407       .  A
C4564      N4569   1.437       .  S
C4565      C4566   1.403       .  A
C4565      H4570   1.084       .  S
C4566      C4571   1.480       .  S
C4566      C4567   1.406       .  A
C4567      C4568   1.402       .  A
C4567      N4572   1.438       .  S
C4568      H4573   1.083       .  S
N4569      H4589   1.045       .  S
N4569      H4590   1.046       .  S
C4571      C4574   1.403       .  A
C4571      C4578   1.405       .  A
N4572      H4587   1.046       .  S
N4572      H4588   1.046       .  S
C4574      C4575   1.408       .  A
C4574      H4579   1.084       .  S
C4575      C4576   1.415       .  A
C4575      N4580   1.438       .  S
C4576      C4577   1.407       .  A
C4577      C4578   1.401       .  A
C4577      H4581   1.083       .  S
C4578      N4582   1.438       .  S
N4580      H4583   1.046       .  S
N4580      H4584   1.045       .  S
N4582      H4585   1.046       .  S
N4582      H4586   1.046       .  S
C4591      C4592   1.415       .  A
C4591      C4596   1.407       .  A
C4592      C4593   1.405       .  A
C4592      N4597   1.429       .  S
C4593      C4594   1.402       .  A
C4593      H4598   1.084       .  S
C4594      C4599   1.494       .  S
C4594      C4595   1.411       .  A
C4595      C4596   1.411       .  A
C4595      N4600   1.437       .  S
C4596      H4601   1.083       .  S
N4597      H4617   1.046       .  S
N4597      H4618   1.045       .  S
C4599      C4602   1.406       .  A
C4599      C4606   1.411       .  A
N4600      H4615   1.046       .  S
N4600      H4616   1.046       .  S
C4602      C4603   1.410       .  A
C4602      H4607   1.084       .  S
C4603      C4604   1.413       .  A
C4603      N4608   1.437       .  S
C4604      C4605   1.407       .  A
C4605      C4606   1.408       .  A
C4605      H4609   1.084       .  S
C4606      N4610   1.438       .  S
N4608      H4611   1.046       .  S
N4608      H4612   1.046       .  S
N4610      H4613   1.045       .  S
N4610      H4614   1.046       .  S
C4619      C4620   1.429   1_455  A
C4619      C4624   1.422       .  A
C4620      C4621   1.420   1_655  A
C4620      N4625   1.431       .  S
C4621      C4622   1.409       .  A
C4621      H4626   1.083       .  S
C4622      C4627   1.531       .  S
C4622      C4623   1.413       .  A
C4623      C4624   1.419       .  A
C4623      N4628   1.432       .  S
C4624      H4629   1.078   1_556  S
N4625      H4645   1.046       .  S
N4625      H4646   1.045       .  S
C4627      C4630   1.409       .  A
C4627      C4634   1.412       .  A
N4628      H4643   1.045   1_556  S
N4628      H4644   1.046       .  S
C4630      C4631   1.419       .  A
C4630      H4635   1.083       .  S
C4631      C4632   1.440       .  A
C4631      N4636   1.433       .  S
C4632      C4633   1.423       .  A
C4633      C4634   1.417       .  A
C4633      H4637   1.077       .  S
C4634      N4638   1.432       .  S
N4636      H4639   1.043       .  S
N4636      H4640   1.042       .  S
N4638      H4641   1.046       .  S
N4638      H4642   1.045       .  S
C4647      C4648   1.429       .  A
C4647      C4652   1.422       .  A
C4648      C4649   1.412       .  A
C4648      N4653   1.433       .  S
C4649      C4650   1.402       .  A
C4649      H4654   1.084       .  S
C4650      C4655   1.499       .  S
C4650      C4651   1.403       .  A
C4651      C4652   1.404       .  A
C4651      N4656   1.433       .  S
C4652      H4657   1.076       .  S
N4653      H4673   1.046       .  S
N4653      H4674   1.045       .  S
C4655      C4658   1.403       .  A
C4655      C4662   1.416       .  A
N4656      H4671   1.046       .  S
N4656      H4672   1.046       .  S
C4658      C4659   1.406       .  A
C4658      H4663   1.084       .  S
C4659      C4660   1.414       .  A
C4659      N4664   1.438       .  S
C4660      C4661   1.403       .  A
C4661      C4662   1.416       .  A
C4661      H4665   1.084       .  S
C4662      N4666   1.437       .  S
N4664      H4667   1.046       .  S
N4664      H4668   1.046       .  S
N4666      H4669   1.046       .  S
N4666      H4670   1.046       .  S
C4675      C4676   1.424       .  A
C4675      C4680   1.421       .  A
C4676      C4677   1.414       .  A
C4676      N4681   1.432       .  S
C4677      C4678   1.406       .  A
C4677      H4682   1.083       .  S
C4678      C4683   1.499       .  S
C4678      C4679   1.405       .  A
C4679      C4680   1.401       .  A
C4679      N4684   1.433       .  S
C4680      H4685   1.079       .  S
N4681      H4701   1.045       .  S
N4681      H4702   1.045       .  S
C4683      C4686   1.403       .  A
C4683      C4690   1.416       .  A
N4684      H4699   1.046       .  S
N4684      H4700   1.046       .  S
C4686      C4687   1.405       .  A
C4686      H4691   1.084       .  S
C4687      C4688   1.414       .  A
C4687      N4692   1.438       .  S
C4688      C4689   1.403       .  A
C4689      C4690   1.416       .  A
C4689      H4693   1.083       .  S
C4690      N4694   1.437       .  S
N4692      H4695   1.045       .  S
N4692      H4696   1.046       .  S
N4694      H4697   1.045       .  S
N4694      H4698   1.046       .  S
C4703      C4704   1.426       .  A
C4703      C4708   1.426       .  A
C4704      C4705   1.418       .  A
C4704      N4709   1.430       .  S
C4705      C4706   1.406       .  A
C4705      H4710   1.084       .  S
C4706      C4711   1.498       .  S
C4706      C4707   1.404       .  A
C4707      C4708   1.399       .  A
C4707      N4712   1.433       .  S
C4708      H4713   1.083       .  S
N4709      H4729   1.046       .  S
N4709      H4730   1.046       .  S
C4711      C4714   1.406       .  A
C4711      C4718   1.411       .  A
N4712      H4727   1.045       .  S
N4712      H4728   1.045       .  S
C4714      C4715   1.415       .  A
C4714      H4719   1.083       .  S
C4715      C4716   1.412       .  A
C4715      N4720   1.437       .  S
C4716      C4717   1.405       .  A
C4717      C4718   1.412       .  A
C4717      H4721   1.084       .  S
C4718      N4722   1.437       .  S
N4720      H4723   1.046       .  S
N4720      H4724   1.045       .  S
N4722      H4725   1.046       .  S
N4722      H4726   1.045       .  S
C4731      C4732   1.430       .  A
C4731      C4736   1.421       .  A
C4732      C4733   1.420       .  A
C4732      N4737   1.431   1_455  S
C4733      C4734   1.410       .  A
C4733      H4738   1.083       .  S
C4734      C4739   1.540       .  S
C4734      C4735   1.421       .  A
C4735      C4736   1.426       .  A
C4735      N4740   1.437       .  S
C4736      H4741   1.081   1_554  S
N4737      H4757   1.046       .  S
N4737      H4758   1.046       .  S
C4739      C4742   1.413       .  A
C4739      C4746   1.418       .  A
N4740      H4755   1.045       .  S
N4740      H4756   1.046       .  S
C4742      C4743   1.423       .  A
C4742      H4747   1.082       .  S
C4743      C4744   1.427       .  A
C4743      N4748   1.432       .  S
C4744      C4745   1.419       .  A
C4745      C4746   1.419       .  A
C4745      H4749   1.080       .  S
C4746      N4750   1.432       .  S
N4748      H4751   1.045       .  S
N4748      H4752   1.046       .  S
N4750      H4753   1.046       .  S
N4750      H4754   1.046       .  S
C4759      C4760   1.431       .  A
C4759      C4764   1.415       .  A
C4760      C4761   1.402       .  A
C4760      N4765   1.433       .  S
C4761      C4762   1.394       .  A
C4761      H4766   1.084       .  S
C4762      C4767   1.492       .  S
C4762      C4763   1.418       .  A
C4763      C4764   1.411       .  A
C4763      N4768   1.438       .  S
C4764      H4769   1.079       .  S
N4765      H4785   1.046       .  S
N4765      H4786   1.046       .  S
C4767      C4770   1.404       .  A
C4767      C4774   1.411       .  A
N4768      H4783   1.046       .  S
N4768      H4784   1.043       .  S
C4770      C4771   1.412       .  A
C4770      H4775   1.084       .  S
C4771      C4772   1.413       .  A
C4771      N4776   1.437       .  S
C4772      C4773   1.403       .  A
C4773      C4774   1.410       .  A
C4773      H4777   1.084       .  S
C4774      N4778   1.437       .  S
N4776      H4779   1.046       .  S
N4776      H4780   1.045       .  S
N4778      H4781   1.046       .  S
N4778      H4782   1.046       .  S
C4787      C4788   1.428       .  A
C4787      C4792   1.420       .  A
C4788      C4789   1.411       .  A
C4788      N4793   1.432       .  S
C4789      C4790   1.405       .  A
C4789      H4794   1.083       .  S
C4790      C4795   1.512       .  S
C4790      C4791   1.409       .  A
C4791      C4792   1.408       .  A
C4791      N4796   1.433       .  S
C4792      H4797   1.073       .  S
N4793      H4813   1.047       .  S
N4793      H4814   1.045       .  S
C4795      C4798   1.413       .  A
C4795      C4802   1.414       .  A
N4796      H4811   1.045       .  S
N4796      H4812   1.046       .  S
C4798      C4799   1.414       .  A
C4798      H4803   1.083       .  S
C4799      C4800   1.411       .  A
C4799      N4804   1.430       .  S
C4800      C4801   1.412       .  A
C4801      C4802   1.408       .  A
C4801      H4805   1.083       .  S
C4802      N4806   1.438       .  S
N4804      H4807   1.045       .  S
N4804      H4808   1.046       .  S
N4806      H4809   1.045       .  S
N4806      H4810   1.046       .  S
C4815      C4816   1.419       .  A
C4815      C4820   1.421       .  A
C4816      C4817   1.413       .  A
C4816      N4821   1.433       .  S
C4817      C4818   1.412       .  A
C4817      H4822   1.081       .  S
C4818      C4823   1.514       .  S
C4818      C4819   1.412       .  A
C4819      C4820   1.407       .  A
C4819      N4824   1.439       .  S
C4820      H4825   1.080       .  S
N4821      H4841   1.045       .  S
N4821      H4842   1.046       .  S
C4823      C4826   1.415       .  A
C4823      C4830   1.413       .  A
N4824      H4839   1.045       .  S
N4824      H4840   1.046       .  S
C4826      C4827   1.417       .  A
C4826      H4831   1.082       .  S
C4827      C4828   1.411       .  A
C4827      N4832   1.436       .  S
C4828      C4829   1.414       .  A
C4829      C4830   1.405       .  A
C4829      H4833   1.082       .  S
C4830      N4834   1.438       .  S
N4832      H4835   1.046       .  S
N4832      H4836   1.045       .  S
N4834      H4837   1.046       .  S
N4834      H4838   1.046       .  S
C4843      C4844   1.435       .  A
C4843      C4848   1.420       .  A
C4844      C4845   1.420       .  A
C4844      N4849   1.431       .  S
C4845      C4846   1.403       .  A
C4845      H4850   1.084       .  S
C4846      C4851   1.526       .  S
C4846      C4847   1.422       .  A
C4847      C4848   1.421       .  A
C4847      N4852   1.438       .  S
C4848      H4853   1.081       .  S
N4849      H4869   1.046       .  S
N4849      H4870   1.045       .  S
C4851      C4854   1.409       .  A
C4851      C4858   1.418       .  A
N4852      H4867   1.046       .  S
N4852      H4868   1.043       .  S
C4854      C4855   1.425       .  A
C4854      H4859   1.084       .  S
C4855      C4856   1.431       .  A
C4855      N4860   1.432   1_655  S
C4856      C4857   1.420   1_556  A
C4857      C4858   1.416   1_554  A
C4857      H4861   1.079       .  S
C4858      N4862   1.438       .  S
N4860      H4863   1.046       .  S
N4860      H4864   1.045       .  S
N4862      H4865   1.046   1_556  S
N4862      H4866   1.043       .  S
C4871      C4872   1.423       .  A
C4871      C4876   1.413       .  A
C4872      C4873   1.408       .  A
C4872      N4877   1.432       .  S
C4873      C4874   1.405       .  A
C4873      H4878   1.083       .  S
C4874      C4879   1.512       .  S
C4874      C4875   1.418       .  A
C4875      C4876   1.413       .  A
C4875      N4880   1.438       .  S
C4876      H4881   1.079       .  S
N4877      H4897   1.046       .  S
N4877      H4898   1.045       .  S
C4879      C4882   1.404       .  A
C4879      C4886   1.422       .  A
N4880      H4895   1.046       .  S
N4880      H4896   1.045       .  S
C4882      C4883   1.408       .  A
C4882      H4887   1.082       .  S
C4883      C4884   1.420       .  A
C4883      N4888   1.439       .  S
C4884      C4885   1.402       .  A
C4885      C4886   1.416       .  A
C4885      H4889   1.083       .  S
C4886      N4890   1.437       .  S
N4888      H4891   1.046       .  S
N4888      H4892   1.045       .  S
N4890      H4893   1.045       .  S
N4890      H4894   1.046       .  S
C4899      C4900   1.422       .  A
C4899      C4904   1.421       .  A
C4900      C4901   1.411       .  A
C4900      N4905   1.432       .  S
C4901      C4902   1.409       .  A
C4901      H4906   1.083       .  S
C4902      C4907   1.514       .  S
C4902      C4903   1.411       .  A
C4903      C4904   1.409       .  A
C4903      N4908   1.438       .  S
C4904      H4909   1.074       .  S
N4905      H4925   1.046       .  S
N4905      H4926   1.046       .  S
C4907      C4910   1.414       .  A
C4907      C4914   1.412       .  A
N4908      H4923   1.046       .  S
N4908      H4924   1.046       .  S
C4910      C4911   1.417       .  A
C4910      H4915   1.083       .  S
C4911      C4912   1.414       .  A
C4911      N4916   1.430       .  S
C4912      C4913   1.415       .  A
C4913      C4914   1.405       .  A
C4913      H4917   1.080       .  S
C4914      N4918   1.439       .  S
N4916      H4919   1.046       .  S
N4916      H4920   1.046       .  S
N4918      H4921   1.045       .  S
N4918      H4922   1.046       .  S
C4927      C4928   1.435       .  A
C4927      C4932   1.419       .  A
C4928      C4929   1.406       .  A
C4928      N4933   1.431       .  S
C4929      C4930   1.394       .  A
C4929      H4934   1.084       .  S
C4930      C4935   1.506       .  S
C4930      C4931   1.413       .  A
C4931      C4932   1.419       .  A
C4931      N4936   1.432       .  S
C4932      H4937   1.079       .  S
N4933      H4953   1.046       .  S
N4933      H4954   1.046       .  S
C4935      C4938   1.413       .  A
C4935      C4942   1.407       .  A
N4936      H4951   1.045       .  S
N4936      H4952   1.046       .  S
C4938      C4939   1.421       .  A
C4938      H4943   1.083       .  S
C4939      C4940   1.412       .  A
C4939      N4944   1.436       .  S
C4940      C4941   1.410       .  A
C4941      C4942   1.407       .  A
C4941      H4945   1.084       .  S
C4942      N4946   1.432       .  S
N4944      H4947   1.045       .  S
N4944      H4948   1.045       .  S
N4946      H4949   1.045       .  S
N4946      H4950   1.046       .  S
C4955      C4956   1.436       .  A
C4955      C4960   1.421       .  A
C4956      C4957   1.420       .  A
C4956      N4961   1.431       .  S
C4957      C4958   1.402       .  A
C4957      H4962   1.084       .  S
C4958      C4963   1.523       .  S
C4958      C4959   1.420       .  A
C4959      C4960   1.421       .  A
C4959      N4964   1.438       .  S
C4960      H4965   1.084       .  S
N4961      H4981   1.046       .  S
N4961      H4982   1.045       .  S
C4963      C4966   1.407       .  A
C4963      C4970   1.418       .  A
N4964      H4979   1.046       .  S
N4964      H4980   1.043       .  S
C4966      C4967   1.422       .  A
C4966      H4971   1.083       .  S
C4967      C4968   1.428       .  A
C4967      N4972   1.431   1_655  S
C4968      C4969   1.421       .  A
C4969      C4970   1.416       .  A
C4969      H4973   1.079       .  S
C4970      N4974   1.438       .  S
N4972      H4975   1.045       .  S
N4972      H4976   1.046       .  S
N4974      H4977   1.045       .  S
N4974      H4978   1.043       .  S
C4983      C4984   1.412       .  A
C4983      C4988   1.404       .  A
C4984      C4985   1.410       .  A
C4984      N4989   1.438       .  S
C4985      C4986   1.407       .  A
C4985      H4990   1.083       .  S
C4986      C4991   1.511       .  S
C4986      C4987   1.419       .  A
C4987      C4988   1.417       .  A
C4987      N4992   1.437       .  S
C4988      H4993   1.084       .  S
N4989      H5009   1.045       .  S
N4989      H5010   1.045       .  S
C4991      C4994   1.409       .  A
C4991      C4998   1.408       .  A
N4992      H5007   1.046       .  S
N4992      H5008   1.045       .  S
C4994      C4995   1.417       .  A
C4994      H4999   1.083       .  S
C4995      C4996   1.423       .  A
C4995      N5000   1.431       .  S
C4996      C4997   1.421       .  A
C4997      C4998   1.406       .  A
C4997      H5001   1.080       .  S
C4998      N5002   1.433       .  S
N5000      H5003   1.045       .  S
N5000      H5004   1.045       .  S
N5002      H5005   1.046       .  S
N5002      H5006   1.046       .  S
C5011      C5012   1.411       .  A
C5011      C5016   1.406       .  A
C5012      C5013   1.418       .  A
C5012      N5017   1.437       .  S
C5013      C5014   1.410       .  A
C5013      H5018   1.083       .  S
C5014      C5019   1.496       .  S
C5014      C5015   1.408       .  A
C5015      C5016   1.404       .  A
C5015      N5020   1.438       .  S
C5016      H5021   1.084       .  S
N5017      H5037   1.045       .  S
N5017      H5038   1.046       .  S
C5019      C5022   1.406       .  A
C5019      C5026   1.398       .  A
N5020      H5035   1.045       .  S
N5020      H5036   1.046       .  S
C5022      C5023   1.415       .  A
C5022      H5027   1.084       .  S
C5023      C5024   1.426       .  A
C5023      N5028   1.429       .  S
C5024      C5025   1.427       .  A
C5025      C5026   1.401       .  A
C5025      H5029   1.083       .  S
C5026      N5030   1.432       .  S
N5028      H5031   1.045       .  S
N5028      H5032   1.046       .  S
N5030      H5033   1.046       .  S
N5030      H5034   1.046       .  S
C5039      C5040   1.429       .  A
C5039      C5044   1.421       .  A
C5040      C5041   1.411       .  A
C5040      N5045   1.433       .  S
C5041      C5042   1.402       .  A
C5041      H5046   1.084       .  S
C5042      C5047   1.501       .  S
C5042      C5043   1.405       .  A
C5043      C5044   1.407       .  A
C5043      N5048   1.433       .  S
C5044      H5049   1.075       .  S
N5045      H5065   1.046       .  S
N5045      H5066   1.045       .  S
C5047      C5050   1.401       .  A
C5047      C5054   1.416       .  A
N5048      H5063   1.046       .  S
N5048      H5064   1.046       .  S
C5050      C5051   1.403       .  A
C5050      H5055   1.084       .  S
C5051      C5052   1.423       .  A
C5051      N5056   1.439       .  S
C5052      C5053   1.405       .  A
C5053      C5054   1.418       .  A
C5053      H5057   1.084       .  S
C5054      N5058   1.437       .  S
N5056      H5059   1.046       .  S
N5056      H5060   1.042       .  S
N5058      H5061   1.045       .  S
N5058      H5062   1.046       .  S
C5067      C5068   1.436       .  A
C5067      C5072   1.421       .  A
C5068      C5069   1.420       .  A
C5068      N5073   1.431       .  S
C5069      C5070   1.402       .  A
C5069      H5074   1.084       .  S
C5070      C5075   1.521       .  S
C5070      C5071   1.412       .  A
C5071      C5072   1.423       .  A
C5071      N5076   1.437       .  S
C5072      H5077   1.083       .  S
N5073      H5093   1.046       .  S
N5073      H5094   1.046       .  S
C5075      C5078   1.406       .  A
C5075      C5082   1.419       .  A
N5076      H5091   1.046       .  S
N5076      H5092   1.045       .  S
C5078      C5079   1.422       .  A
C5078      H5083   1.084       .  S
C5079      C5080   1.430       .  A
C5079      N5084   1.433       .  S
C5080      C5081   1.423       .  A
C5081      C5082   1.417       .  A
C5081      H5085   1.078       .  S
C5082      N5086   1.439       .  S
N5084      H5087   1.045       .  S
N5084      H5088   1.046       .  S
N5086      H5089   1.046       .  S
N5086      H5090   1.043       .  S
C5095      C5096   1.427       .  A
C5095      C5100   1.422       .  A
C5096      C5097   1.419       .  A
C5096      N5101   1.431       .  S
C5097      C5098   1.406       .  A
C5097      H5102   1.084       .  S
C5098      C5103   1.496       .  S
C5098      C5099   1.404       .  A
C5099      C5100   1.397       .  A
C5099      N5104   1.433       .  S
C5100      H5105   1.078       .  S
N5101      H5121   1.046       .  S
N5101      H5122   1.046       .  S
C5103      C5106   1.406       .  A
C5103      C5110   1.409       .  A
N5104      H5119   1.044       .  S
N5104      H5120   1.045       .  S
C5106      C5107   1.416       .  A
C5106      H5111   1.083       .  S
C5107      C5108   1.413       .  A
C5107      N5112   1.437       .  S
C5108      C5109   1.404       .  A
C5109      C5110   1.406       .  A
C5109      H5113   1.084       .  S
C5110      N5114   1.432       .  S
N5112      H5115   1.045       .  S
N5112      H5116   1.046       .  S
N5114      H5117   1.046       .  S
N5114      H5118   1.046       .  S
C5123      C5124   1.436       .  A
C5123      C5128   1.419       .  A
C5124      C5125   1.408       .  A
C5124      N5129   1.431       .  S
C5125      C5126   1.397       .  A
C5125      H5130   1.084       .  S
C5126      C5131   1.500       .  S
C5126      C5127   1.416       .  A
C5127      C5128   1.410       .  A
C5127      N5132   1.439       .  S
C5128      H5133   1.083       .  S
N5129      H5149   1.046       .  S
N5129      H5150   1.046       .  S
C5131      C5134   1.408       .  A
C5131      C5138   1.411       .  A
N5132      H5147   1.046       .  S
N5132      H5148   1.043       .  S
C5134      C5135   1.416       .  A
C5134      H5139   1.083       .  S
C5135      C5136   1.410       .  A
C5135      N5140   1.436       .  S
C5136      C5137   1.407       .  A
C5137      C5138   1.410       .  A
C5137      H5141   1.084       .  S
C5138      N5142   1.438       .  S
N5140      H5143   1.046       .  S
N5140      H5144   1.045       .  S
N5142      H5145   1.046       .  S
N5142      H5146   1.046       .  S
C5151      C5152   1.423       .  A
C5151      C5156   1.418       .  A
C5152      C5153   1.416       .  A
C5152      N5157   1.429       .  S
C5153      C5154   1.407       .  A
C5153      H5158   1.083       .  S
C5154      C5159   1.506       .  S
C5154      C5155   1.408       .  A
C5155      C5156   1.405       .  A
C5155      N5160   1.432       .  S
C5156      H5161   1.081       .  S
N5157      H5177   1.045       .  S
N5157      H5178   1.045       .  S
C5159      C5162   1.404       .  A
C5159      C5166   1.418       .  A
N5160      H5175   1.046       .  S
N5160      H5176   1.046       .  S
C5162      C5163   1.407       .  A
C5162      H5167   1.083       .  S
C5163      C5164   1.415       .  A
C5163      N5168   1.438       .  S
C5164      C5165   1.405       .  A
C5165      C5166   1.419       .  A
C5165      H5169   1.084       .  S
C5166      N5170   1.437       .  S
N5168      H5171   1.046       .  S
N5168      H5172   1.046       .  S
N5170      H5173   1.046       .  S
N5170      H5174   1.046       .  S
C5179      C5180   1.439       .  A
C5179      C5184   1.424       .  A
C5180      C5181   1.426       .  A
C5180      N5185   1.440       .  S
C5181      C5182   1.406       .  A
C5181      H5186   1.083       .  S
C5182      C5187   1.521       .  S
C5182      C5183   1.411       .  A
C5183      C5184   1.411       .  A
C5183      N5188   1.433       .  S
C5184      H5189   1.074       .  S
N5185      H5205   1.042       .  S
N5185      H5206   1.045       .  S
C5187      C5190   1.403       .  A
C5187      C5194   1.420       .  A
N5188      H5203   1.043       .  S
N5188      H5204   1.045       .  S
C5190      C5191   1.419       .  A
C5190      H5195   1.084       .  S
C5191      C5192   1.436       .  A
C5191      N5196   1.431       .  S
C5192      C5193   1.421       .  A
C5193      C5194   1.417       .  A
C5193      H5197   1.083       .  S
C5194      N5198   1.438       .  S
N5196      H5199   1.046       .  S
N5196      H5200   1.046       .  S
N5198      H5201   1.045       .  S
N5198      H5202   1.044       .  S
C5207      C5208   1.425       .  A
C5207      C5212   1.424       .  A
C5208      C5209   1.413       .  A
C5208      N5213   1.432       .  S
C5209      C5210   1.403       .  A
C5209      H5214   1.084       .  S
C5210      C5215   1.490       .  S
C5210      C5211   1.409       .  A
C5211      C5212   1.399       .  A
C5211      N5216   1.440       .  S
C5212      H5217   1.078       .  S
N5213      H5233   1.045       .  S
N5213      H5234   1.046       .  S
C5215      C5218   1.408       .  A
C5215      C5222   1.408       .  A
N5216      H5231   1.045       .  S
N5216      H5232   1.043       .  S
C5218      C5219   1.413       .  A
C5218      H5223   1.083       .  S
C5219      C5220   1.407       .  A
C5219      N5224   1.431       .  S
C5220      C5221   1.409       .  A
C5221      C5222   1.404       .  A
C5221      H5225   1.084       .  S
C5222      N5226   1.439       .  S
N5224      H5227   1.045       .  S
N5224      H5228   1.045       .  S
N5226      H5229   1.046       .  S
N5226      H5230   1.044       .  S
C5235      C5236   1.441       .  A
C5235      C5240   1.423       .  A
C5236      C5237   1.407       .  A
C5236      N5241   1.434       .  S
C5237      C5238   1.399       .  A
C5237      H5242   1.084       .  S
C5238      C5243   1.496       .  S
C5238      C5239   1.410       .  A
C5239      C5240   1.405       .  A
C5239      N5244   1.440       .  S
C5240      H5245   1.073       .  S
N5241      H5261   1.049       .  S
N5241      H5262   1.035       .  S
C5243      C5246   1.405       .  A
C5243      C5250   1.410       .  A
N5244      H5259   1.046       .  S
N5244      H5260   1.043       .  S
C5246      C5247   1.411       .  A
C5246      H5251   1.084       .  S
C5247      C5248   1.414       .  A
C5247      N5252   1.438       .  S
C5248      C5249   1.407       .  A
C5249      C5250   1.413       .  A
C5249      H5253   1.084       .  S
C5250      N5254   1.437       .  S
N5252      H5255   1.045       .  S
N5252      H5256   1.046       .  S
N5254      H5257   1.046       .  S
N5254      H5258   1.045       .  S
C5263      C5264   1.410       .  A
C5263      C5268   1.407       .  A
C5264      C5265   1.410       .  A
C5264      N5269   1.436       .  S
C5265      C5266   1.403       .  A
C5265      H5270   1.084       .  S
C5266      C5271   1.489       .  S
C5266      C5267   1.410       .  A
C5267      C5268   1.410       .  A
C5267      N5272   1.438       .  S
C5268      H5273   1.084       .  S
N5269      H5289   1.044       .  S
N5269      H5290   1.046       .  S
C5271      C5274   1.390       .  A
C5271      C5278   1.415       .  A
N5272      H5287   1.046       .  S
N5272      H5288   1.045       .  S
C5274      C5275   1.396       .  A
C5274      H5279   1.085       .  S
C5275      C5276   1.445       .  A
C5275      N5280   1.434       .  S
C5276      C5277   1.419       .  A
C5277      C5278   1.412       .  A
C5277      H5281   1.078       .  S
C5278      N5282   1.438       .  S
N5280      H5283   1.047       .  S
N5280      H5284   1.037       .  S
N5282      H5285   1.045       .  S
N5282      H5286   1.044       .  S
C5291      C5292   1.425       .  A
C5291      C5296   1.422       .  A
C5292      C5293   1.420       .  A
C5292      N5297   1.432       .  S
C5293      C5294   1.410       .  A
C5293      H5298   1.084       .  S
C5294      C5299   1.524       .  S
C5294      C5295   1.421       .  A
C5295      C5296   1.416       .  A
C5295      N5300   1.439       .  S
C5296      H5301   1.079       .  S
N5297      H5317   1.045       .  S
N5297      H5318   1.046       .  S
C5299      C5302   1.408       .  A
C5299      C5306   1.420       .  A
N5300      H5315   1.045       .  S
N5300      H5316   1.042       .  S
C5302      C5303   1.420       .  A
C5302      H5307   1.084       .  S
C5303      C5304   1.432       .  A
C5303      N5308   1.433       .  S
C5304      C5305   1.422       .  A
C5305      C5306   1.416       .  A
C5305      H5309   1.075       .  S
C5306      N5310   1.440       .  S
N5308      H5311   1.046       .  S
N5308      H5312   1.045       .  S
N5310      H5313   1.046       .  S
N5310      H5314   1.042       .  S
C5319      C5320   1.435       .  A
C5319      C5324   1.416       .  A
C5320      C5321   1.401       .  A
C5320      N5325   1.433       .  S
C5321      C5322   1.392       .  A
C5321      H5326   1.084       .  S
C5322      C5327   1.491       .  S
C5322      C5323   1.418       .  A
C5323      C5324   1.413       .  A
C5323      N5328   1.438       .  S
C5324      H5329   1.079       .  S
N5325      H5345   1.046       .  S
N5325      H5346   1.046       .  S
C5327      C5330   1.402       .  A
C5327      C5334   1.413       .  A
N5328      H5343   1.046       .  S
N5328      H5344   1.044       .  S
C5330      C5331   1.408       .  A
C5330      H5335   1.084       .  S
C5331      C5332   1.411       .  A
C5331      N5336   1.438       .  S
C5332      C5333   1.404       .  A
C5333      C5334   1.413       .  A
C5333      H5337   1.084       .  S
C5334      N5338   1.437       .  S
N5336      H5339   1.045       .  S
N5336      H5340   1.046       .  S
N5338      H5341   1.046       .  S
N5338      H5342   1.046       .  S
C5347      C5348   1.421       .  A
C5347      C5352   1.419       .  A
C5348      C5349   1.415       .  A
C5348      N5353   1.432       .  S
C5349      C5350   1.409       .  A
C5349      H5354   1.083       .  S
C5350      C5355   1.507       .  S
C5350      C5351   1.408       .  A
C5351      C5352   1.403       .  A
C5351      N5356   1.433       .  S
C5352      H5357   1.080       .  S
N5353      H5373   1.045       .  S
N5353      H5374   1.045       .  S
C5355      C5358   1.406       .  A
C5355      C5362   1.414       .  A
N5356      H5371   1.046       .  S
N5356      H5372   1.046       .  S
C5358      C5359   1.410       .  A
C5358      H5363   1.083       .  S
C5359      C5360   1.418       .  A
C5359      N5364   1.431       .  S
C5360      C5361   1.413       .  A
C5361      C5362   1.413       .  A
C5361      H5365   1.081       .  S
C5362      N5366   1.438       .  S
N5364      H5367   1.046       .  S
N5364      H5368   1.046       .  S
N5366      H5369   1.045       .  S
N5366      H5370   1.046       .  S
C5375      C5376   1.427       .  A
C5375      C5380   1.422       .  A
C5376      C5377   1.408       .  A
C5376      N5381   1.433       .  S
C5377      C5378   1.403       .  A
C5377      H5382   1.084       .  S
C5378      C5383   1.502       .  S
C5378      C5379   1.406       .  A
C5379      C5380   1.407       .  A
C5379      N5384   1.433       .  S
C5380      H5385   1.075       .  S
N5381      H5401   1.046       .  S
N5381      H5402   1.046       .  S
C5383      C5386   1.407       .  A
C5383      C5390   1.418       .  A
N5384      H5399   1.046       .  S
N5384      H5400   1.046       .  S
C5386      C5387   1.407       .  A
C5386      H5391   1.083       .  S
C5387      C5388   1.409       .  A
C5387      N5392   1.433       .  S
C5388      C5389   1.401       .  A
C5389      C5390   1.412       .  A
C5389      H5393   1.084       .  S
C5390      N5394   1.437       .  S
N5392      H5395   1.046       .  S
N5392      H5396   1.045       .  S
N5394      H5397   1.046       .  S
N5394      H5398   1.045       .  S
C5403      C5404   1.434       .  A
C5403      C5408   1.417       .  A
C5404      C5405   1.416       .  A
C5404      N5409   1.432       .  S
C5405      C5406   1.409       .  A
C5405      H5410   1.081       .  S
C5406      C5411   1.544       .  S
C5406      C5407   1.422       .  A
C5407      C5408   1.423       .  A
C5407      N5412   1.431       .  S
C5408      H5413   1.084       .  S
N5409      H5429   1.046       .  S
N5409      H5430   1.045       .  S
C5411      C5414   1.414       .  A
C5411      C5418   1.421       .  A
N5412      H5427   1.046       .  S
N5412      H5428   1.046       .  S
C5414      C5415   1.422       .  A
C5414      H5419   1.080       .  S
C5415      C5416   1.429       .  A
C5415      N5420   1.432       .  S
C5416      C5417   1.418       .  A
C5417      C5418   1.416       .  A
C5417      H5421   1.076       .  S
C5418      N5422   1.433       .  S
N5420      H5423   1.045       .  S
N5420      H5424   1.046       .  S
N5422      H5425   1.046       .  S
N5422      H5426   1.046       .  S
C5431      C5432   1.429       .  A
C5431      C5436   1.424       .  A
C5432      C5433   1.416       .  A
C5432      N5437   1.430       .  S
C5433      C5434   1.406       .  A
C5433      H5438   1.084       .  S
C5434      C5439   1.499       .  S
C5434      C5435   1.410       .  A
C5435      C5436   1.401       .  A
C5435      N5440   1.440       .  S
C5436      H5441   1.084       .  S
N5437      H5457   1.046       .  S
N5437      H5458   1.045       .  S
C5439      C5442   1.407       .  A
C5439      C5446   1.410       .  A
N5440      H5455   1.046       .  S
N5440      H5456   1.042       .  S
C5442      C5443   1.410       .  A
C5442      H5447   1.084       .  S
C5443      C5444   1.419       .  A
C5443      N5448   1.438       .  S
C5444      C5445   1.408       .  A
C5445      C5446   1.410       .  A
C5445      H5449   1.084       .  S
C5446      N5450   1.437       .  S
N5448      H5451   1.045       .  S
N5448      H5452   1.043       .  S
N5450      H5453   1.046       .  S
N5450      H5454   1.045       .  S
C5459      C5460   1.427       .  A
C5459      C5464   1.424       .  A
C5460      C5461   1.414       .  A
C5460      N5465   1.429       .  S
C5461      C5462   1.402       .  A
C5461      H5466   1.084       .  S
C5462      C5467   1.495       .  S
C5462      C5463   1.406       .  A
C5463      C5464   1.402       .  A
C5463      N5468   1.434       .  S
C5464      H5469   1.079       .  S
N5465      H5485   1.045       .  S
N5465      H5486   1.046       .  S
C5467      C5470   1.407       .  A
C5467      C5474   1.409       .  A
N5468      H5483   1.044       .  S
N5468      H5484   1.046       .  S
C5470      C5471   1.415       .  A
C5470      H5475   1.084       .  S
C5471      C5472   1.411       .  A
C5471      N5476   1.431       .  S
C5472      C5473   1.412       .  A
C5473      C5474   1.409       .  A
C5473      H5477   1.083       .  S
C5474      N5478   1.439       .  S
N5476      H5479   1.046       .  S
N5476      H5480   1.045       .  S
N5478      H5481   1.046       .  S
N5478      H5482   1.044       .  S
C5487      C5488   1.425       .  A
C5487      C5492   1.418       .  A
C5488      C5489   1.406       .  A
C5488      N5493   1.432       .  S
C5489      C5490   1.406       .  A
C5489      H5494   1.082       .  S
C5490      C5495   1.519       .  S
C5490      C5491   1.414       .  A
C5491      C5492   1.413       .  A
C5491      N5496   1.432       .  S
C5492      H5497   1.076       .  S
N5493      H5513   1.046       .  S
N5493      H5514   1.046       .  S
C5495      C5498   1.415       .  A
C5495      C5502   1.416       .  A
N5496      H5511   1.046       .  S
N5496      H5512   1.046       .  S
C5498      C5499   1.421       .  A
C5498      H5503   1.082       .  S
C5499      C5500   1.416       .  A
C5499      N5504   1.435       .  S
C5500      C5501   1.412       .  A
C5501      C5502   1.404       .  A
C5501      H5505   1.081       .  S
C5502      N5506   1.439       .  S
N5504      H5507   1.045       .  S
N5504      H5508   1.045       .  S
N5506      H5509   1.045       .  S
N5506      H5510   1.046       .  S
