geometry optimzed in LAMMPS
_audit_creation_date              2020-11-30 
_audit_creation_method            'lammps2cif' 
_symmetry_space_group_name_H-M    'P1' 
_symmetry_Int_Tables_number       1 
_symmetry_cell_setting            triclinic 
loop_ 
_symmetry_equiv_pos_as_xyz 
  x,y,z 
_cell_length_a                    37.8393732 
_cell_length_b                    37.806763155424356 
_cell_length_c                    34.292767171124126 
_cell_angle_alpha                 89.89828228281411 
_cell_angle_beta                  90.17232709534821 
_cell_angle_gamma                 120.33203537711564 
loop_ 
_atom_site_label 
_atom_site_type_symbol 
_atom_site_fract_x 
_atom_site_fract_y 
_atom_site_fract_z 
_atom_site_charge 
C1          C  0.22275563  0.20517748  0.15390436     0.03200
C2          C  0.25550945  0.23759374  0.17341798    -0.12900
C3          C  0.28305234  0.27356951  0.15369881     0.00700
C4          C  0.27766809  0.27651654  0.11364793    -0.11400
C5          C  0.24714874  0.24291841  0.09227950     0.03200
C6          C  0.21928228  0.20735634  0.11334202    -0.10900
H7          H  0.25856285  0.23529520  0.20458694     0.08800
H8          H  0.29687340  0.30574500  0.09978691     0.06400
H9          H  0.19482594  0.18088420  0.09901526     0.06200
C10         C  0.20821575  0.21956997  0.48668929     0.03200
C11         C  0.24088143  0.25161462  0.46684666    -0.12900
C12         C  0.27652897  0.27970651  0.48666265     0.00700
C13         C  0.27858118  0.27577625  0.02719386    -0.11400
C14         C  0.24468848  0.24560657  0.04859371     0.03200
C15         C  0.20952182  0.21731935  0.02742767    -0.10900
H16         H  0.23920898  0.25336107  0.43541329     0.08800
H17         H  0.30757753  0.29541025  0.04129353     0.06400
H18         H  0.18291730  0.19308021  0.04172663     0.06200
C19         C  0.24392243  0.46458638  0.15575169     0.03200
C20         C  0.24384601  0.46344562  0.11488551    -0.12900
C21         C  0.21446474  0.46787430  0.09290506     0.00700
C22         C  0.18522124  0.47322803  0.11388394    -0.11400
C23         C  0.18292739  0.47078654  0.15474515     0.03200
C24         C  0.21250281  0.46629514  0.17525046    -0.10900
H25         H  0.26753866  0.46007242  0.10109885     0.08800
H26         H  0.16477309  0.48082421  0.09916380     0.06400
H27         H  0.21191034  0.46508943  0.20683110     0.06200
C28         C  0.24682122  0.46838585  0.48645425     0.03200
C29         C  0.21290945  0.46448853  0.46633812    -0.12900
C30         C  0.18057695  0.46434510  0.48623292     0.00700
C31         C  0.18061541  0.46382575  0.02717732    -0.11400
C32         C  0.21449167  0.46761217  0.04871784     0.03200
C33         C  0.24815358  0.47111022  0.02728334    -0.10900
H34         H  0.21219309  0.46239112  0.43480660     0.08800
H35         H  0.15401810  0.46100585  0.04147683     0.06400
H36         H  0.27557724  0.47558001  0.04147328     0.06200
C37         C  0.48023185  0.23887111  0.15451965     0.03200
C38         C  0.48351366  0.24025907  0.11382809    -0.12900
C39         C  0.48352400  0.20803725  0.09262933     0.00700
C40         C  0.48209126  0.17545004  0.11465207    -0.11400
C41         C  0.47978313  0.17436557  0.15558155     0.03200
C42         C  0.47710456  0.20551418  0.17494623    -0.10900
H43         H  0.48657594  0.26715793  0.09980250     0.08800
H44         H  0.48359274  0.15075470  0.10093183     0.06400
H45         H  0.47330496  0.20445118  0.20628302     0.06200
C46         C  0.48746421  0.24076473  0.48536501     0.03200
C47         C  0.48465724  0.23990183  0.02614645    -0.12900
C48         C  0.48566921  0.20865277  0.04834076     0.00700
C49         C  0.48887124  0.17800123  0.02732501    -0.11400
C50         C  0.48956375  0.17764315  0.48636503     0.03200
C51         C  0.48826708  0.20891881  0.46583343    -0.10900
H52         H  0.48231000  0.26436990  0.03950582     0.08800
H53         H  0.49128554  0.15406351  0.04175726     0.06400
H54         H  0.48756342  0.20855928  0.43425867     0.06200
O55         O  0.39201034  0.00761753  0.27870678    -0.88100
C56         C  0.10120443  0.09558270  0.37756061     1.12000
O57         O  0.44164854  0.47410925  0.32040595    -1.35900
O58         O  0.07278802  0.09704819  0.27240463    -0.89600
O59         O  0.36032547  0.43948065  0.27563574    -0.90200
O60         O  0.44222240  0.43105225  0.23761692    -0.79000
O61         O  0.48252391  0.05264902  0.28380644    -1.01100
C62         C  0.06079409  0.47798918  0.25055821     1.22000
O63         O  0.48485426  0.43234868  0.32077071    -1.36000
Mn64       Mn  0.48381141  0.47426299  0.36330232     1.82100
O65         O  0.02814766  0.47554122  0.23884054    -0.78100
O66         O  0.11101381  0.06822909  0.28171896    -0.87500
C67         C  0.05728002  0.47329940  0.39318695     1.13100
C68         C  0.10311103  0.09275828  0.26367417     1.07800
O69         O  0.44036401  0.43148511  0.40302174    -0.79100
O70         O  0.02664298  0.01738600  0.32094290    -1.32700
O71         O  0.40486219  0.39420734  0.35633165    -0.98300
C72         C  0.48624128  0.35830178  0.26273989     1.06500
Mn73       Mn  0.08485318  0.02222999  0.32369789     1.48600
O74         O  0.45200129  0.35061331  0.27689324    -0.87500
Mn75       Mn  0.38430681  0.41937597  0.31982389     1.49600
O76         O  0.39396781  0.00742830  0.36640684    -0.91300
C77         C  0.48204680  0.04733321  0.24887811     1.19700
C78         C  0.36554031  0.47249496  0.37802364     1.11800
Mn79       Mn  0.48447823  0.47444235  0.27797456     1.81000
O80         O  0.06371986  0.47495238  0.35837127    -0.96500
Mn81       Mn  0.43780747  0.02817110  0.32139795     1.49300
C82         C  0.36539585  0.47362420  0.26394103     1.08300
Mn83       Mn  0.03983841  0.43029810  0.32054980     1.49900
C84         C  0.48612833  0.35692375  0.37711395     1.11200
O85         O  0.40571730  0.39479717  0.28417352    -1.02300
O86         O  0.10658793  0.06579848  0.36927871    -0.92000
C87         C  0.41026044  0.39990120  0.24924551     1.22500
O88         O  0.06584244  0.47759834  0.28560835    -1.02700
O89         O  0.07580844  0.10207216  0.35947568    -0.90100
O90         O  0.01986041  0.38448782  0.36284044    -0.89700
O91         O  0.35931964  0.43909378  0.36299333    -0.89700
Mn92       Mn  0.02972782  0.07484914  0.31820782     1.47900
O93         O  0.02546881  0.47289099  0.40408490    -0.78200
C94         C  0.40939416  0.39937289  0.39128777     1.15600
O95         O  0.48289519  0.01626904  0.23746096    -0.76900
O96         O  0.48392261  0.01708724  0.40269873    -0.76500
Mn97       Mn  0.43101225  0.37422200  0.32056464     1.51100
O98         O  0.02034079  0.38695647  0.27559240    -0.88900
O99         O  0.48522440  0.05528741  0.35658613    -0.96400
O100        O  0.45155423  0.35034831  0.36483187    -0.91400
C101        C  0.48607503  0.04974627  0.39153511     1.13300
C102        C  0.49175013  0.14470124  0.46462455    -0.05400
C103        C  0.46697434  0.10328766  0.47554953    -0.32800
C104        C  0.46630945  0.07179929  0.45327129     0.36500
C105        C  0.48956002  0.08146350  0.41887960    -0.05700
C106        C  0.51487197  0.12270280  0.40858255    -0.32700
C107        C  0.51700002  0.15415151  0.43152471     0.36400
H108        H  0.44755857  0.09537418  0.00088017     0.16700
O109        O  0.44060899  0.03174991  0.46373875    -0.60200
H110        H  0.03294517  0.13083275  0.38223686     0.16800
O111        O  0.04470777  0.19408898  0.42196060    -0.60300
H112        H  0.03585809  0.19893537  0.39621559     0.43800
H113        H  0.45671516  0.02513091  0.48213500     0.43700
C114        C  0.48941878  0.27468622  0.46215477    -0.05400
C115        C  0.45579213  0.28064506  0.46097413    -0.32800
C116        C  0.45479724  0.30843652  0.43451567     0.36500
C117        C  0.48766993  0.33056680  0.40849391    -0.05700
C118        C  0.52244773  0.32639470  0.41174563    -0.32700
C119        C  0.52334730  0.29856686  0.43806074     0.36400
H120        H  0.42935048  0.26248058  0.97956004     0.16700
O121        O  0.42136442  0.31334605  0.43419851    -0.60200
H122        H  0.54856045  0.34360739  0.39282183     0.16800
O123        O  0.55747886  0.29470444  0.44001777    -0.60300
H124        H  0.55580553  0.27820483  0.41689492     0.43800
H125        H  0.42789663  0.33558538  0.45319385     0.43700
C126        C  0.48157656  0.14149784  0.17832512    -0.05400
C127        C  0.46112871  0.10052198  0.16505633    -0.32800
C128        C  0.46223914  0.06942239  0.18664949     0.36500
C129        C  0.48306833  0.07883190  0.22253899    -0.05700
C130        C  0.00382503  0.11964011  0.23543737    -0.32700
C131        C  0.00412761  0.15085687  0.21343924     0.36400
H132        H  0.44355945  0.09231860  0.13825228     0.16700
O133        O  0.44198349  0.02994673  0.17296899    -0.60200
H134        H  0.02077735  0.12769198  0.26264440     0.16800
O135        O  0.02844251  0.19070002  0.22551458    -0.60300
H136        H  0.01647676  0.19294800  0.25044527     0.43800
H137        H  0.41369991  0.01780840  0.18309092     0.43700
C138        C  0.48613240  0.33165150  0.23068413    -0.05400
C139        C  0.44887050  0.30348722  0.21255141    -0.32800
C140        C  0.44690452  0.27436733  0.18603863     0.36500
C141        C  0.48248402  0.27333121  0.17680287    -0.05700
C142        C  0.52000527  0.30256248  0.19306208    -0.32700
C143        C  0.52218430  0.33175379  0.21956466     0.36400
H144        H  0.42080589  0.30302105  0.21988575     0.16700
O145        O  0.40986736  0.24616895  0.17028139    -0.60200
H146        H  0.54753077  0.30170678  0.18632214     0.16800
O147        O  0.55930011  0.35831552  0.23626182    -0.60300
H148        H  0.57356570  0.38071858  0.21699684     0.43800
H149        H  0.39818207  0.22280375  0.18877738     0.43700
C150        C  0.28031000  0.46884440  0.46386487    -0.05400
C151        C  0.27282328  0.43293961  0.44496900    -0.32800
C152        C  0.30101510  0.43323708  0.41847961     0.36500
C153        C  0.33745721  0.47036677  0.40966309    -0.05700
C154        C  0.34557255  0.50608777  0.43002121    -0.32700
C155        C  0.31744363  0.50540190  0.45711121     0.36400
H156        H  0.24421159  0.40465301  0.44986075     0.16700
O157        O  0.29114731  0.39743221  0.39960388    -0.60200
H158        H  0.37326579  0.53493857  0.42422005     0.16800
O159        O  0.32531021  0.54116274  0.97492006    -0.60300
H160        H  0.34203088  0.54361785  0.99818087     0.43800
H161        H  0.29750655  0.38148673  0.41844466     0.43700
C162        C  0.14819975  0.46727852  0.46396269    -0.05400
C163        C  0.10639446  0.44271188  0.47353902    -0.32800
C164        C  0.07609168  0.44550007  0.45207242     0.36500
C165        C  0.08741299  0.47251614  0.42015263    -0.05700
C166        C  0.12897669  0.49694333  0.41086691    -0.32700
C167        C  0.15919184  0.49532580  0.43285091     0.36400
H168        H  0.09715139  0.42078475  0.99717508     0.16700
O169        O  0.03559552  0.41980406  0.46080827    -0.60200
H170        H  0.13826301  0.01783962  0.38636117     0.16800
O171        O  0.19955397  0.02265903  0.42477105    -0.60300
H172        H  0.20481323  0.01453598  0.39890972     0.43800
H173        H  0.02885657  0.43486411  0.48025638     0.43700
C174        C  0.33809950  0.47348724  0.23255905    -0.05400
C175        C  0.31631189  0.43868257  0.20863069    -0.32800
C176        C  0.28705908  0.43609176  0.18171068     0.36500
C177        C  0.27866421  0.46821528  0.17895389    -0.05700
C178        C  0.30165542  0.50367471  0.20137629    -0.32700
C179        C  0.33145320  0.50677809  0.22757609     0.36400
H180        H  0.32129031  0.41298630  0.21132235     0.16700
O181        O  0.26502162  0.40105962  0.16015622    -0.60200
H182        H  0.29563616  0.52877074  0.19927672     0.16800
O183        O  0.35192896  0.54152355  0.24985161    -0.60300
H184        H  0.37567275  0.56094144  0.23379060     0.43800
H185        H  0.28306232  0.40378378  0.13803923     0.43700
C186        C  0.15130428  0.47520517  0.17668088    -0.05400
C187        C  0.16259068  0.49750702  0.21168961    -0.32800
C188        C  0.13349939  0.49875239  0.23554552     0.36500
C189        C  0.09213243  0.47950074  0.22376344    -0.05700
C190        C  0.08081715  0.45889254  0.18785360    -0.32700
C191        C  0.10988383  0.45609729  0.16458498     0.36400
H192        H  0.19420675  0.51348613  0.22130004     0.16700
O193        O  0.14603656  0.51898790  0.27052000    -0.60200
H194        H  0.04901447  0.44304298  0.17877998     0.16800
O195        O  0.09688631  0.43209837  0.13175443    -0.60300
H196        H  0.09026644  0.44756938  0.11256256     0.43800
H197        H  0.14706092  0.49916046  0.28880792     0.43700
C198        C  0.31256995  0.31074412  0.46417076    -0.05400
C199        C  0.32201496  0.29910321  0.42866490    -0.32800
C200        C  0.35366350  0.32754716  0.40516500     0.36500
C201        C  0.37803365  0.36858371  0.41761438    -0.05700
C202        C  0.36980673  0.38018859  0.45377522    -0.32700
C203        C  0.33682080  0.35183577  0.47665531     0.36400
H204        H  0.30447661  0.26768190  0.41864431     0.16700
O205        O  0.35998359  0.31506247  0.36955740    -0.60200
H206        H  0.38758810  0.41175267  0.46336190     0.16800
O207        O  0.32749531  0.36509857  0.51017050    -0.60300
H208        H  0.30822453  0.37417805  0.00209802     0.43800
H209        H  0.36914559  0.29520211  0.37524233     0.43700
C210        C  0.12564122  0.12528878  0.40878115    -0.05400
C211        C  0.12799904  0.16372797  0.40928985    -0.32800
C212        C  0.15282844  0.19393410  0.43617342     0.36500
C213        C  0.17542416  0.18595961  0.46371453    -0.05700
C214        C  0.17128268  0.14694339  0.46506122    -0.32700
C215        C  0.14689501  0.11679255  0.43770444     0.36400
H216        H  0.11168094  0.17118415  0.38786156     0.16700
O217        O  0.15509120  0.23132402  0.43525055    -0.60200
H218        H  0.18870140  0.14050936  0.48614155     0.16800
O219        O  0.14413662  0.07929769  0.43960057    -0.60300
H220        H  0.17057365  0.08385235  0.42928388     0.43800
H221        H  0.17200822  0.24566173  0.41212539     0.43700
C222        C  0.31589482  0.30861247  0.17590209    -0.05400
C223        C  0.30674291  0.31714191  0.21302294    -0.32800
C224        C  0.33707092  0.34688718  0.23671313     0.36500
C225        C  0.37769445  0.37034793  0.22295281    -0.05700
C226        C  0.38678618  0.36344739  0.18507471    -0.32700
C227        C  0.35642023  0.33230188  0.16181713     0.36400
H228        H  0.27581612  0.30016332  0.22427664     0.16700
O229        O  0.32682658  0.35182160  0.27390283    -0.60200
H230        H  0.41785021  0.38082842  0.17421288     0.16800
O231        O  0.36714790  0.32427986  0.12616316    -0.60300
H232        H  0.37374301  0.30237944  0.13107932     0.43800
H233        H  0.30678210  0.36121694  0.27091582     0.43700
C234        C  0.13173272  0.11791319  0.23202530    -0.05400
C235        C  0.17144496  0.12346782  0.23147400    -0.32800
C236        C  0.20075248  0.14998627  0.20468043     0.37500
C237        C  0.19055208  0.17105185  0.17717716    -0.05700
C238        C  0.15021894  0.16347337  0.17580699    -0.32700
C239        C  0.12092126  0.13716875  0.20287010     0.36400
H240        H  0.18052872  0.10845241  0.25288460     0.16700
O241        O  0.23943778  0.15534474  0.20561830    -0.60200
H242        H  0.14188637  0.17949139  0.15481386     0.16800
O243        O  0.08215808  0.13126213  0.20091365    -0.60300
H244        H  0.06686862  0.10742245  0.18333264     0.43800
H245        H  0.25222049  0.17088355  0.22988696     0.43700
C246        C  0.22274435  0.20521014  0.65387240     0.03200
C247        C  0.25550056  0.23762251  0.67338561    -0.12900
C248        C  0.28304102  0.27360057  0.65366960     0.00700
C249        C  0.27765668  0.27655179  0.61361960    -0.11400
C250        C  0.24713587  0.24295568  0.59224949     0.03200
C251        C  0.21926548  0.20739421  0.61331116    -0.10900
H252        H  0.25855734  0.23531919  0.70455336     0.08800
H253        H  0.29686378  0.30578106  0.59976083     0.06400
H254        H  0.19480554  0.18092512  0.59898413     0.06200
C255        C  0.20819238  0.21955107  0.98673091     0.03200
C256        C  0.24084640  0.25160823  0.96688734    -0.12900
C257        C  0.27650562  0.27969429  0.98669315     0.00700
C258        C  0.27858632  0.27580485  0.52716712    -0.11400
C259        C  0.24468608  0.24564062  0.54856205     0.03200
C260        C  0.20952674  0.21735037  0.52738883    -0.10900
H261        H  0.23915585  0.25336734  0.93545745     0.08800
H262        H  0.30757677  0.29544776  0.54127297     0.06400
H263        H  0.18291570  0.19311603  0.54168433     0.06200
C264        C  0.24393127  0.46461102  0.65573801     0.03200
C265        C  0.24385388  0.46346243  0.61487209    -0.12900
C266        C  0.21446111  0.46786870  0.59288810     0.00700
C267        C  0.18521139  0.47321703  0.61386461    -0.11400
C268        C  0.18291863  0.47078354  0.65472713     0.03200
C269        C  0.21250182  0.46630533  0.67523362    -0.10900
H270        H  0.26755468  0.46010083  0.60108851     0.08800
H271        H  0.16475723  0.48080241  0.59914142     0.06400
H272        H  0.21190803  0.46509831  0.70681405     0.06200
C273        C  0.24684475  0.46844045  0.98647448     0.03200
C274        C  0.21293548  0.46454768  0.96635653    -0.12900
C275        C  0.18059569  0.46439201  0.98625030     0.00700
C276        C  0.18060311  0.46379433  0.52715940    -0.11400
C277        C  0.21448127  0.46758642  0.54869975     0.03200
C278        C  0.24813733  0.47107078  0.52726318    -0.10900
H279        H  0.21222368  0.46245521  0.93482487     0.08800
H280        H  0.15400998  0.46098577  0.54145732     0.06400
H281        H  0.27556284  0.47554333  0.54145081     0.06200
C282        C  0.48000074  0.23874394  0.65453561     0.03200
C283        C  0.48309502  0.24006680  0.61383000    -0.12900
C284        C  0.48355344  0.20806930  0.59263037     0.00700
C285        C  0.48260751  0.17572458  0.61467475    -0.11400
C286        C  0.48012483  0.17453394  0.65559015     0.03200
C287        C  0.47717948  0.20552286  0.67496278    -0.10900
H288        H  0.48565739  0.26675361  0.59981360     0.08800
H289        H  0.48467234  0.15132048  0.60101090     0.06400
H290        H  0.47339835  0.20444403  0.70630186     0.06200
C291        C  0.48721827  0.24061172  0.98536954     0.03200
C292        C  0.48507225  0.24014709  0.52614853    -0.12900
C293        C  0.48566865  0.20867231  0.54832988     0.00700
C294        C  0.48841593  0.17777211  0.52728195    -0.11400
C295        C  0.48985648  0.17777338  0.98640559     0.03200
C296        C  0.48829181  0.20889661  0.96585594    -0.10900
H297        H  0.48319959  0.26488124  0.53950429     0.08800
H298        H  0.49030822  0.15352850  0.54167931     0.06400
H299        H  0.48759142  0.20852298  0.93428172     0.06200
O300        O  0.39205070  0.00764805  0.77868964    -0.88100
C301        C  0.10121987  0.09559503  0.87756515     1.12000
O302        O  0.44163513  0.47411640  0.82041028    -1.35900
O303        O  0.07281850  0.09707448  0.77240413    -0.89600
O304        O  0.36031708  0.43951652  0.77563363    -0.90200
O305        O  0.44219784  0.43105634  0.73761834    -0.79000
O306        O  0.48256320  0.05267142  0.78380501    -1.01100
C307        C  0.06075840  0.47793795  0.75055695     1.22000
O308        O  0.48480689  0.43232231  0.82077233    -1.36000
Mn309      Mn  0.48379027  0.47424660  0.86330598     1.82100
O310        O  0.02812094  0.47551230  0.73884112    -0.78100
O311        O  0.11104402  0.06825408  0.78170726    -0.87500
C312        C  0.05725477  0.47326017  0.89318469     1.13100
C313        C  0.10313884  0.09278414  0.76366603     1.07800
O314        O  0.44033246  0.43147678  0.90302766    -0.79100
O315        O  0.02666986  0.01740928  0.82093624    -1.32700
O316        O  0.40481668  0.39422261  0.85633332    -0.98300
C317        C  0.48611903  0.35823896  0.76274195     1.06500
Mn318      Mn  0.08487795  0.02225138  0.82368843     1.48600
O319        O  0.45189155  0.35057580  0.77690090    -0.87500
Mn320      Mn  0.38427945  0.41940048  0.81982285     1.49600
O321        O  0.39400111  0.00747206  0.86639688    -0.91300
C322        C  0.48210517  0.04737151  0.74887669     1.19700
C323        C  0.36554064  0.47252936  0.87803185     1.11800
Mn324      Mn  0.48445785  0.47443153  0.77797803     1.81000
O325        O  0.06368597  0.47489924  0.85836800    -0.96500
Mn326      Mn  0.43784209  0.02820337  0.82139018     1.49300
C327        C  0.36539793  0.47366432  0.76394288     1.08300
Mn328      Mn  0.03976866  0.43023214  0.82055285     1.49900
C329        C  0.48600724  0.35686536  0.87712869     1.11200
O330        O  0.40567455  0.39481027  0.78417114    -1.02300
O331        O  0.10660918  0.06581527  0.86927740    -0.92000
C332        C  0.41022718  0.39991363  0.74924322     1.22500
O333        O  0.06580174  0.47753678  0.78560734    -1.02700
O334        O  0.07583228  0.10209185  0.85947514    -0.90100
O335        O  0.01975454  0.38441639  0.86285835    -0.89700
O336        O  0.35930227  0.43912681  0.86299138    -0.89700
Mn337      Mn  0.02975948  0.07487539  0.81820530     1.47900
O338        O  0.02544733  0.47286017  0.90408413    -0.78200
C339        C  0.40934754  0.39937955  0.89129019     1.15600
O340        O  0.48293356  0.01629818  0.73745526    -0.76900
O341        O  0.48396758  0.01713005  0.90269524    -0.76500
Mn342      Mn  0.43093893  0.37421234  0.82056717     1.51100
O343        O  0.02023306  0.38687859  0.77559232    -0.88900
O344        O  0.48525997  0.05532431  0.85658224    -0.96400
O345        O  0.45144674  0.35031378  0.86483397    -0.91400
C346        C  0.48612886  0.04979405  0.89153148     1.13300
C347        C  0.49207193  0.14484227  0.96468260    -0.05400
C348        C  0.46734775  0.10344349  0.97567222    -0.32800
C349        C  0.46657744  0.07192633  0.95335487     0.36500
C350        C  0.48969181  0.08154888  0.91887698    -0.05700
C351        C  0.51496556  0.12278060  0.90851973    -0.32700
C352        C  0.51717865  0.15425748  0.93148355     0.36400
H353        H  0.44708245  0.09518220  0.50068152     0.16700
O354        O  0.44089240  0.03188943  0.96387156    -0.60200
H355        H  0.03293397  0.13088120  0.88210792     0.16800
O356        O  0.04481241  0.19418820  0.92183122    -0.60300
H357        H  0.03585173  0.19897771  0.89612113     0.43800
H358        H  0.45704311  0.02527649  0.98221711     0.43700
C359        C  0.48915811  0.27452727  0.96215025    -0.05400
C360        C  0.45553126  0.28048350  0.96092752    -0.32800
C361        C  0.45458591  0.30831620  0.93448421     0.36500
C362        C  0.48750533  0.33048665  0.90851583    -0.05700
C363        C  0.52228074  0.32632084  0.91181964    -0.32700
C364        C  0.52313700  0.29846219  0.93812368     0.36400
H365        H  0.42964271  0.26266632  0.47964951     0.16700
O366        O  0.42115717  0.31323109  0.93413316    -0.60200
H367        H  0.54843118  0.34356705  0.89294677     0.16800
O368        O  0.55728522  0.29463213  0.94014530    -0.60300
H369        H  0.55571114  0.27822019  0.91698479     0.43800
H370        H  0.42766477  0.33544807  0.95314808     0.43700
C371        C  0.48193295  0.14166794  0.67830630    -0.05400
C372        C  0.46154090  0.10072048  0.66496329    -0.32800
C373        C  0.46253681  0.06957454  0.68657690     0.36500
C374        C  0.48321273  0.07891631  0.72254649    -0.05700
C375        C  0.00392780  0.11970497  0.73551119    -0.32700
C376        C  0.00432716  0.15096445  0.71350385     0.36400
H377        H  0.44408999  0.09257900  0.63808793     0.16700
O378        O  0.44230692  0.03011974  0.67284072    -0.60200
H379        H  0.02076989  0.12770819  0.76278010     0.16800
O380        O  0.02857403  0.19078784  0.72566201    -0.60300
H381        H  0.01651344  0.19297643  0.75055580     0.43800
H382        H  0.41400970  0.01795848  0.68293435     0.43700
C383        C  0.48597076  0.33157009  0.73068489    -0.05400
C384        C  0.44869034  0.30341399  0.71256834    -0.32800
C385        C  0.44668758  0.27426985  0.68606192     0.36500
C386        C  0.48224654  0.27319723  0.67682707    -0.05700
C387        C  0.51978377  0.30242317  0.69306691    -0.32700
C388        C  0.52200118  0.33164131  0.71955280     0.36400
H389        H  0.42064075  0.30297484  0.71991012     0.16700
O390        O  0.40963820  0.24608686  0.67031596    -0.60200
H391        H  0.54729732  0.30154844  0.68631602     0.16800
O392        O  0.55913547  0.35820391  0.73621726    -0.60300
H393        H  0.57337260  0.38061277  0.71695306     0.43800
H394        H  0.39797840  0.22269409  0.68878017     0.43700
C395        C  0.28033230  0.46889495  0.96388800    -0.05400
C396        C  0.27284494  0.43298479  0.94500348    -0.32800
C397        C  0.30103159  0.43327656  0.91851159     0.36500
C398        C  0.33746699  0.47040670  0.90967846    -0.05700
C399        C  0.34558562  0.50613233  0.93002958    -0.32700
C400        C  0.31746406  0.50545117  0.95712560     0.36400
H401        H  0.24423630  0.40469807  0.94990584     0.16700
O402        O  0.29116542  0.39746418  0.89965164    -0.60200
H403        H  0.37327501  0.53498302  0.92421807     0.16800
O404        O  0.32528440  0.54111104  0.47490717    -0.60300
H405        H  0.34198137  0.54355256  0.49818386     0.43800
H406        H  0.29753739  0.38153262  0.91849832     0.43700
C407        C  0.14820883  0.46730995  0.96397783    -0.05400
C408        C  0.10640554  0.44274046  0.97356208    -0.32800
C409        C  0.07609298  0.44550587  0.95208886     0.36500
C410        C  0.08740029  0.47249764  0.92015096    -0.05700
C411        C  0.12896198  0.49692774  0.91085654    -0.32700
C412        C  0.15918755  0.49533826  0.93285064     0.36400
H413        H  0.09713205  0.42074207  0.49714040     0.16700
O414        O  0.03560036  0.41981046  0.96083822    -0.60200
H415        H  0.13828511  0.01786633  0.88634219     0.16800
O416        O  0.19958276  0.02269659  0.92474502    -0.60300
H417        H  0.20484358  0.01457097  0.89888633     0.43800
H418        H  0.02885853  0.43488837  0.98026237     0.43700
C419        C  0.33810983  0.47353350  0.73255731    -0.05400
C420        C  0.31636990  0.43875334  0.70858939    -0.32800
C421        C  0.28711994  0.43615988  0.68166421     0.36500
C422        C  0.27867774  0.46825394  0.67894438    -0.05700
C423        C  0.30162510  0.50369277  0.70140673    -0.32700
C424        C  0.33142071  0.50679973  0.72761135     0.36400
H425        H  0.32138356  0.41307728  0.71125412     0.16700
O426        O  0.26512859  0.40114895  0.66006977    -0.60200
H427        H  0.29557151  0.52876758  0.69933536     0.16800
O428        O  0.35184782  0.54151798  0.74993059    -0.60300
H429        H  0.37559475  0.56097497  0.73389610     0.43800
H430        H  0.28320331  0.40390995  0.63797098     0.43700
C431        C  0.15128796  0.47519328  0.67666471    -0.05400
C432        C  0.16256569  0.49747979  0.71168303    -0.32800
C433        C  0.13346850  0.49870895  0.73554433     0.36500
C434        C  0.09210232  0.47945936  0.72375915    -0.05700
C435        C  0.08079593  0.45887164  0.68783829    -0.32700
C436        C  0.10986839  0.45608971  0.66456445     0.36400
H437        H  0.19418020  0.51345973  0.72129780     0.16700
O438        O  0.14600028  0.51892877  0.77052677    -0.60200
H439        H  0.04899518  0.44302717  0.67875880     0.16800
O440        O  0.09687650  0.43210813  0.63172263    -0.60300
H441        H  0.09025988  0.44758928  0.61253988     0.43800
H442        H  0.14702392  0.49909380  0.78880520     0.43700
C443        C  0.31253628  0.31073962  0.96418939    -0.05400
C444        C  0.32193095  0.29911879  0.92864504    -0.32800
C445        C  0.35356429  0.32756750  0.90513567     0.36500
C446        C  0.37797881  0.36858886  0.91761253    -0.05700
C447        C  0.36980325  0.38017403  0.95380852    -0.32700
C448        C  0.33682830  0.35181837  0.97669967     0.36400
H449        H  0.30436862  0.26770771  0.91860217     0.16700
O450        O  0.35983301  0.31509825  0.86949754    -0.60200
H451        H  0.38762066  0.41172619  0.96342055     0.16800
O452        O  0.32755868  0.36506768  0.01025609    -0.60300
H453        H  0.30814224  0.37416708  0.50196122     0.43800
H454        H  0.36900757  0.29524032  0.87513633     0.43700
C455        C  0.12563723  0.12528910  0.90879925    -0.05400
C456        C  0.12802226  0.16374036  0.90928792    -0.32800
C457        C  0.15283622  0.19393805  0.93618392     0.36500
C458        C  0.17539337  0.18594505  0.96375519    -0.05700
C459        C  0.17121086  0.14691133  0.96512858    -0.32700
C460        C  0.14683324  0.11676599  0.93776186     0.36400
H461        H  0.11173793  0.17121214  0.88783474     0.16700
O462        O  0.15512265  0.23133879  0.93524407    -0.60200
H463        H  0.18859186  0.14045823  0.98623706     0.16800
O464        O  0.14402220  0.07924863  0.93968949    -0.60300
H465        H  0.17047638  0.08377682  0.92945051     0.43800
H466        H  0.17201347  0.24564869  0.91209778     0.43700
C467        C  0.31587934  0.30864042  0.67587809    -0.05400
C468        C  0.30672031  0.31716090  0.71299978    -0.32800
C469        C  0.33704318  0.34689945  0.73669756     0.36500
C470        C  0.37766810  0.37036437  0.72294408    -0.05700
C471        C  0.38676766  0.36347355  0.68506523    -0.32700
C472        C  0.35640674  0.33233296  0.66179987     0.36400
H473        H  0.27579166  0.30017953  0.72424853     0.16700
O474        O  0.32679156  0.35182393  0.77388729    -0.60200
H475        H  0.41783348  0.38085830  0.67420858     0.16800
O476        O  0.36714063  0.32431853  0.62614556    -0.60300
H477        H  0.37376205  0.30243604  0.63106402     0.43800
H478        H  0.30676923  0.36124657  0.77089918     0.43700
C479        C  0.13175070  0.11794005  0.73201033    -0.05400
C480        C  0.17146065  0.12349058  0.73143795    -0.32800
C481        C  0.20075759  0.15001028  0.70463660     0.37500
C482        C  0.19054844  0.17108142  0.67714746    -0.05700
C483        C  0.15021783  0.16350922  0.67579932    -0.32700
C484        C  0.12093112  0.13720278  0.70286856     0.36400
H485        H  0.18055077  0.10847053  0.75283732     0.16700
O486        O  0.23944194  0.15536563  0.70555352    -0.60200
H487        H  0.14187890  0.17953260  0.65481843     0.16800
O488        O  0.08216927  0.13129917  0.70092888    -0.60300
H489        H  0.06687465  0.10746451  0.68334331     0.43800
H490        H  0.25223736  0.17090509  0.72981879     0.43700
C491        C  0.22275230  0.70518903  0.15387925     0.03200
C492        C  0.25550565  0.73760353  0.17339373    -0.12900
C493        C  0.28304783  0.77358012  0.15367663     0.00700
C494        C  0.27766665  0.77652850  0.11362566    -0.11400
C495        C  0.24714939  0.74293046  0.09225527     0.03200
C496        C  0.21927930  0.70736899  0.11331689    -0.10900
H497        H  0.25855842  0.73530323  0.20456259     0.08800
H498        H  0.29687299  0.80575762  0.09976633     0.06400
H499        H  0.19482198  0.68089809  0.09898956     0.06200
C500        C  0.20818498  0.71956481  0.48672343     0.03200
C501        C  0.24084525  0.75161155  0.46687720    -0.12900
C502        C  0.27650148  0.77969864  0.48668506     0.00700
C503        C  0.27859580  0.77578623  0.02717368    -0.11400
C504        C  0.24469845  0.74561689  0.04856831     0.03200
C505        C  0.20953849  0.71732694  0.02739586    -0.10900
H506        H  0.23916163  0.75336211  0.43544550     0.08800
H507        H  0.30758787  0.79542480  0.04127852     0.06400
H508        H  0.18293065  0.69308812  0.04169103     0.06200
C509        C  0.24392145  0.96460805  0.15574686     0.03200
C510        C  0.24385289  0.96347358  0.11488066    -0.12900
C511        C  0.21446985  0.96789554  0.09289640     0.00700
C512        C  0.18521778  0.97324014  0.11387243    -0.11400
C513        C  0.18291914  0.97079611  0.15473429     0.03200
C514        C  0.21249438  0.96630639  0.17524165    -0.10900
H515        H  0.26755198  0.96010889  0.10109705     0.08800
H516        H  0.16476651  0.98083036  0.09914980     0.06400
H517        H  0.21189590  0.96509357  0.20682206     0.06200
C518        C  0.24680213  0.96836941  0.48646168     0.03200
C519        C  0.21289356  0.96448366  0.46634857    -0.12900
C520        C  0.18056288  0.96434034  0.48624778     0.00700
C521        C  0.18062558  0.96383831  0.02716409    -0.11400
C522        C  0.21450218  0.96763168  0.04870837     0.03200
C523        C  0.24816721  0.97113095  0.02727656    -0.10900
H524        H  0.21217776  0.96239315  0.43481667     0.08800
H525        H  0.15402677  0.96101882  0.04146010     0.06400
H526        H  0.27559117  0.97560481  0.04146900     0.06200
C527        C  0.48010367  0.73880448  0.15452442     0.03200
C528        C  0.48328685  0.74015722  0.11382541    -0.12900
C529        C  0.48353297  0.70805225  0.09262740     0.00700
C530        C  0.48235611  0.67559284  0.11466392    -0.11400
C531        C  0.47995296  0.67445236  0.15558582     0.03200
C532        C  0.47713399  0.70551799  0.17495275    -0.10900
H533        H  0.48608773  0.76694581  0.09980438     0.08800
H534        H  0.48415765  0.65105076  0.10097645     0.06400
H535        H  0.47334202  0.70444725  0.20629039     0.06200
C536        C  0.48732817  0.74068473  0.48537149     0.03200
C537        C  0.48488301  0.74003386  0.02614161    -0.12900
C538        C  0.48566570  0.70866105  0.04833198     0.00700
C539        C  0.48862157  0.67787321  0.02730116    -0.11400
C540        C  0.48972684  0.67772076  0.48638395     0.03200
C541        C  0.48827495  0.70891039  0.46584614    -0.10900
H542        H  0.48278811  0.76464518  0.03949651     0.08800
H543        H  0.49074940  0.65376691  0.04171449     0.06400
H544        H  0.48756386  0.70854227  0.43427191     0.06200
O545        O  0.39202945  0.50761691  0.27869336    -0.88100
C546        C  0.10120469  0.59560437  0.37756660     1.12000
O547        O  0.44162659  0.97409653  0.32040957    -1.35900
O548        O  0.07280052  0.59707248  0.27240056    -0.89600
O549        O  0.36030576  0.93948201  0.27563511    -0.90200
O550        O  0.44220309  0.93104438  0.23761867    -0.79000
O551        O  0.48254180  0.55265811  0.28380146    -1.01100
C552        C  0.06076740  0.97795609  0.25056252     1.22000
O553        O  0.48482023  0.93232411  0.32077334    -1.36000
Mn554      Mn  0.48378581  0.97423925  0.36330604     1.82100
O555        O  0.02812665  0.97552168  0.23884529    -0.78100
O556        O  0.11103612  0.56826594  0.28171927    -0.87500
C557        C  0.05725416  0.97327074  0.39319236     1.13100
C558        C  0.10312704  0.59278854  0.26367096     1.07800
O559        O  0.44033392  0.93146270  0.40302371    -0.79100
O560        O  0.02666221  0.51740893  0.32093783    -1.32700
O561        O  0.40482441  0.89419671  0.35633137    -0.98300
C562        C  0.48617513  0.85826564  0.26274087     1.06500
Mn563      Mn  0.08487607  0.52226561  0.32369602     1.48600
O564        O  0.45194039  0.85058886  0.27689456    -0.87500
Mn565      Mn  0.38427872  0.91937059  0.31982212     1.49600
O566        O  0.39398042  0.50743706  0.36639459    -0.91300
C567        C  0.48207569  0.54735184  0.24887318     1.19700
C568        C  0.36552045  0.97248662  0.37802889     1.11800
Mn569      Mn  0.48445630  0.97442551  0.27797934     1.81000
O570        O  0.06369241  0.97491670  0.35837640    -0.96500
Mn571      Mn  0.43782251  0.52817956  0.32138868     1.49300
C572        C  0.36537662  0.97362790  0.26394916     1.08300
Mn573      Mn  0.03979362  0.93025610  0.32055669     1.49900
C574        C  0.48605560  0.85688558  0.37712424     1.11200
O575        O  0.40568605  0.89479164  0.28417077    -1.02300
O576        O  0.10659636  0.56582600  0.36928231    -0.92000
C577        C  0.41023590  0.89989776  0.24924333     1.22500
O578        O  0.06581258  0.97755802  0.28561287    -1.02700
O579        O  0.07581419  0.60209649  0.35947476    -0.90100
O580        O  0.01979424  0.88444428  0.36285565    -0.89700
O581        O  0.35929180  0.93908661  0.36299038    -0.89700
Mn582      Mn  0.02973961  0.57486822  0.31820290     1.47900
O583        O  0.02544256  0.97286366  0.40408777    -0.78200
C584        C  0.40935617  0.89935856  0.39128792     1.15600
O585        O  0.48291608  0.51628421  0.23745368    -0.76900
O586        O  0.48394664  0.51711472  0.40269348    -0.76500
Mn587      Mn  0.43096542  0.87420503  0.32056408     1.51100
O588        O  0.02028010  0.88690907  0.27559690    -0.88900
O589        O  0.48523874  0.55530654  0.35657842    -0.96400
O590        O  0.45148885  0.85031825  0.36483043    -0.91400
C591        C  0.48610024  0.54977426  0.39152778     1.13300
C592        C  0.49192588  0.64478493  0.46464836    -0.05400
C593        C  0.46719315  0.60338069  0.47561959    -0.32800
C594        C  0.46646858  0.57187574  0.45331970     0.36500
C595        C  0.48962709  0.58151423  0.41886966    -0.05700
C596        C  0.51490212  0.62274820  0.40852699    -0.32700
C597        C  0.51707926  0.65421384  0.43148033     0.36400
H598        H  0.44727571  0.59526596  0.00075646     0.16700
O599        O  0.44079187  0.53183419  0.46382702    -0.60200
H600        H  0.03290203  0.63085769  0.38213645     0.16800
O601        O  0.04473000  0.69414524  0.42185327    -0.60300
H602        H  0.03580371  0.69894886  0.39613032     0.43800
H603        H  0.45694162  0.52522710  0.48217878     0.43700
C604        C  0.48927267  0.77460262  0.46216006    -0.05400
C605        C  0.45563790  0.78054607  0.46094541    -0.32800
C606        C  0.45466927  0.80835847  0.43449456     0.36500
C607        C  0.48757393  0.83052089  0.40851123    -0.05700
C608        C  0.52235827  0.82636696  0.41180412    -0.32700
C609        C  0.52323554  0.79852501  0.43811515     0.36400
H610        H  0.42953117  0.76260076  0.97961656     0.16700
O611        O  0.42123182  0.81325931  0.43414897    -0.60200
H612        H  0.54849698  0.84360703  0.39291647     0.16800
O613        O  0.55738324  0.79469328  0.44012002    -0.60300
H614        H  0.55577131  0.77823600  0.41698380     0.43800
H615        H  0.42773262  0.83547232  0.45316614     0.43700
C616        C  0.48175319  0.64158509  0.17831609    -0.05400
C617        C  0.46134155  0.60062531  0.16500441    -0.32800
C618        C  0.46239538  0.56950191  0.18660612     0.36500
C619        C  0.48313978  0.57887455  0.22253998    -0.05700
C620        C  0.00386377  0.61966747  0.23547623    -0.32700
C621        C  0.00421236  0.65090572  0.21347576     0.36400
H622        H  0.44383778  0.59245478  0.13816084     0.16700
O623        O  0.44216151  0.53003899  0.17289143    -0.60200
H624        H  0.02075599  0.62769394  0.26271706     0.16800
O625        O  0.02848488  0.69073778  0.22559931    -0.60300
H626        H  0.01646502  0.69294890  0.25050975     0.43800
H627        H  0.41387055  0.51788135  0.18299792     0.43700
C628        C  0.48604766  0.83161031  0.23068148    -0.05400
C629        C  0.44877859  0.80346194  0.21254614    -0.32800
C630        C  0.44679216  0.77433024  0.18603514     0.36500
C631        C  0.48235712  0.77326354  0.17681086    -0.05700
C632        C  0.51988558  0.80248252  0.19306956    -0.32700
C633        C  0.52208615  0.83168821  0.21956355     0.36400
H634        H  0.42072417  0.80301800  0.21987698     0.16700
O635        O  0.40975046  0.74615122  0.17027221    -0.60200
H636        H  0.54740205  0.80160893  0.18633100     0.16800
O637        O  0.55920979  0.85824232  0.23625139    -0.60300
H638        H  0.57346071  0.88065993  0.21699760     0.43800
H639        H  0.39806610  0.72276831  0.18874710     0.43700
C640        C  0.28029067  0.96883186  0.46387075    -0.05400
C641        C  0.27281628  0.93292254  0.44499346    -0.32800
C642        C  0.30100952  0.93322143  0.41850471     0.36500
C643        C  0.33743836  0.97035740  0.40966955    -0.05700
C644        C  0.34554041  0.00608345  0.43000965    -0.32700
C645        C  0.31741240  0.00539575  0.45710051     0.36400
H646        H  0.24421363  0.90463073  0.44989959     0.16700
O647        O  0.29115534  0.89741057  0.39964787    -0.60200
H648        H  0.37322145  0.03493965  0.42419277     0.16800
O649        O  0.32534274  0.04116647  0.97493466    -0.60300
H650        H  0.34208477  0.04362633  0.99818066     0.43800
H651        H  0.29750097  0.88146993  0.41850874     0.43700
C652        C  0.14818406  0.96727714  0.46398185    -0.05400
C653        C  0.10637942  0.94271521  0.47356347    -0.32800
C654        C  0.07607452  0.94549753  0.45209395     0.36500
C655        C  0.08739158  0.97249882  0.42016247    -0.05700
C656        C  0.12895515  0.99692529  0.41087457    -0.32700
C657        C  0.15917308  0.99531846  0.43286509     0.36400
H658        H  0.09716178  0.92077099  0.99714322     0.16700
O659        O  0.03557958  0.91980907  0.46083961    -0.60200
H660        H  0.13828671  0.51786597  0.38635989     0.16800
O661        O  0.19957336  0.52266185  0.42475543    -0.60300
H662        H  0.20483010  0.51453446  0.39889469     0.43800
H663        H  0.02884452  0.93488406  0.48027345     0.43700
C664        C  0.33808171  0.97349677  0.23256998    -0.05400
C665        C  0.31631634  0.93870704  0.20861918    -0.32800
C666        C  0.28707011  0.93612207  0.18169422     0.36500
C667        C  0.27865930  0.96823595  0.17895533    -0.05700
C668        C  0.30162795  0.00368117  0.20140270    -0.32700
C669        C  0.33141861  0.00677873  0.22760827     0.36400
H670        H  0.32130828  0.91301817  0.21129580     0.16700
O671        O  0.26505345  0.90110296  0.16011707    -0.60200
H672        H  0.29559589  0.02876955  0.19931811     0.16800
O673        O  0.35187016  0.04150751  0.24990986    -0.60300
H674        H  0.37561873  0.06094430  0.23386656     0.43800
H675        H  0.28311227  0.90384401  0.13801073     0.43700
C676        C  0.15129119  0.97520766  0.17667149    -0.05400
C677        C  0.16257244  0.99749989  0.21168631    -0.32800
C678        C  0.13347680  0.99873089  0.23554786     0.36500
C679        C  0.09210969  0.97947659  0.22376556    -0.05700
C680        C  0.08079966  0.95888079  0.18784907    -0.32700
C681        C  0.10987076  0.95609804  0.16457511     0.36400
H682        H  0.19418812  0.01348150  0.22129795     0.16700
O683        O  0.14601042  0.01895576  0.27052779    -0.60200
H684        H  0.04899762  0.94303123  0.17877349     0.16800
O685        O  0.09687765  0.93210981  0.13173765    -0.60300
H686        H  0.09025915  0.94758649  0.11255146     0.43800
H687        H  0.14703658  0.99912478  0.28880812     0.43700
C688        C  0.31253712  0.81073519  0.46418416    -0.05400
C689        C  0.32195364  0.79909942  0.42865990    -0.32800
C690        C  0.35359521  0.82754202  0.40515308     0.36500
C691        C  0.37799076  0.86857149  0.41761347    -0.05700
C692        C  0.36979229  0.88017105  0.45379080    -0.32700
C693        C  0.33681156  0.85182096  0.47667825     0.36400
H694        H  0.30440019  0.76768250  0.41863074     0.16700
O695        O  0.35988745  0.81506137  0.36953113    -0.60200
H696        H  0.38759382  0.91172990  0.46338759     0.16800
O697        O  0.32751576  0.86508192  0.51021194    -0.60300
H698        H  0.30819622  0.87416973  0.00203569     0.43800
H699        H  0.36904654  0.79519501  0.37519390     0.43700
C700        C  0.12562422  0.62529950  0.40879954    -0.05400
C701        C  0.12798450  0.66373936  0.40930907    -0.32800
C702        C  0.15280439  0.69393875  0.43620161     0.36500
C703        C  0.17538798  0.68595648  0.46375063    -0.05700
C704        C  0.17123563  0.64693549  0.46510108    -0.32700
C705        C  0.14685634  0.61679075  0.43773583     0.36400
H706        H  0.11167760  0.67120207  0.38787371     0.16700
O707        O  0.15507284  0.73133136  0.43527788    -0.60200
H708        H  0.18864206  0.64049379  0.48618931     0.16800
O709        O  0.14408422  0.57928966  0.43963623    -0.60300
H710        H  0.17052810  0.58383930  0.42934349     0.43800
H711        H  0.17198224  0.74566358  0.41214796     0.43700
C712        C  0.31588540  0.80862201  0.17588342    -0.05400
C713        C  0.30672632  0.81714691  0.21300306    -0.32800
C714        C  0.33704983  0.84688754  0.23669918     0.36500
C715        C  0.37767522  0.87034942  0.22294530    -0.05700
C716        C  0.38677426  0.86345505  0.18506785    -0.32700
C717        C  0.35641289  0.83231260  0.16180478     0.36400
H718        H  0.27579754  0.80016697  0.22425174     0.16700
O719        O  0.32679938  0.85181542  0.27388845    -0.60200
H720        H  0.41784031  0.88083755  0.17421123     0.16800
O721        O  0.36714680  0.82429374  0.12615256    -0.60300
H722        H  0.37376083  0.80240680  0.13107346     0.43800
H723        H  0.30676107  0.86121820  0.27090029     0.43700
C724        C  0.13174315  0.61793993  0.23201688    -0.05400
C725        C  0.17145119  0.62348432  0.23145223    -0.32800
C726        C  0.20075282  0.64999600  0.20465098     0.37500
C727        C  0.19055047  0.67106485  0.17715344    -0.05700
C728        C  0.15022127  0.66349744  0.17579694    -0.32700
C729        C  0.12092954  0.63719937  0.20286727     0.36400
H730        H  0.18053680  0.60846592  0.25285771     0.16700
O731        O  0.23943520  0.65534648  0.20557690    -0.60200
H732        H  0.14188804  0.67951958  0.15480925     0.16800
O733        O  0.08217000  0.63130249  0.20092232    -0.60300
H734        H  0.06686740  0.60745272  0.18335531     0.43800
H735        H  0.25222816  0.67088832  0.22984120     0.43700
C736        C  0.22274825  0.70519700  0.65389833     0.03200
C737        C  0.25550531  0.73761122  0.67341002    -0.12900
C738        C  0.28304578  0.77358849  0.65369182     0.00700
C739        C  0.27765758  0.77653820  0.61364205    -0.11400
C740        C  0.24713443  0.74294167  0.59227431     0.03200
C741        C  0.21926818  0.70737966  0.61333717    -0.10900
H742        H  0.25856333  0.73530990  0.70457773     0.08800
H743        H  0.29686316  0.80576680  0.59978134     0.06400
H744        H  0.19480901  0.68090929  0.59901089     0.06200
C745        C  0.20822116  0.71955445  0.98669759     0.03200
C746        C  0.24088103  0.75160900  0.96685751    -0.12900
C747        C  0.27653211  0.77969898  0.98667132     0.00700
C748        C  0.27857065  0.77579142  0.52718778    -0.11400
C749        C  0.24467475  0.74562794  0.54858811     0.03200
C750        C  0.20950824  0.71734112  0.52742150    -0.10900
H751        H  0.23920159  0.75336406  0.93542596     0.08800
H752        H  0.30756567  0.79542868  0.54128840     0.06400
H753        H  0.18290041  0.69310693  0.54172105     0.06200
C754        C  0.24393102  0.96458633  0.65574377     0.03200
C755        C  0.24384479  0.96343058  0.61487781    -0.12900
C756        C  0.21445345  0.96784341  0.59289799     0.00700
C757        C  0.18521332  0.97320201  0.61387780    -0.11400
C758        C  0.18292596  0.97077160  0.65473971     0.03200
C759        C  0.21250948  0.96629157  0.67524380    -0.10900
H760        H  0.26753879  0.96006016  0.60109089     0.08800
H761        H  0.16476276  0.98079413  0.59915736     0.06400
H762        H  0.21192222  0.96509190  0.70682449     0.06200
C763        C  0.24685986  0.96845455  0.98646720     0.03200
C764        C  0.21294865  0.96455398  0.96634687    -0.12900
C765        C  0.18060702  0.96439720  0.98623731     0.00700
C766        C  0.18058982  0.96377948  0.52717444    -0.11400
C767        C  0.21446726  0.96756269  0.54871035     0.03200
C768        C  0.24811924  0.97104461  0.52727031    -0.10900
H769        H  0.21223698  0.96245774  0.93481540     0.08800
H770        H  0.15399824  0.96097013  0.54147633     0.06400
H771        H  0.27554376  0.97551050  0.54145488     0.06200
C772        C  0.48013249  0.73881480  0.65452954     0.03200
C773        C  0.48333362  0.74017681  0.61383189    -0.12900
C774        C  0.48355116  0.70805857  0.59263132     0.00700
C775        C  0.48234130  0.67558144  0.61466313    -0.11400
C776        C  0.47995255  0.67444790  0.65558606     0.03200
C777        C  0.47714796  0.70552067  0.67495540    -0.10900
H778        H  0.48616957  0.76698145  0.59981287     0.08800
H779        H  0.48409953  0.65101782  0.60096863     0.06400
H780        H  0.47335635  0.70444879  0.70629332     0.06200
C781        C  0.48736170  0.74069589  0.98536096     0.03200
C782        C  0.48485080  0.74001820  0.52615102    -0.12900
C783        C  0.48568088  0.70866872  0.54833699     0.00700
C784        C  0.48867881  0.67790636  0.52730321    -0.11400
C785        C  0.48970206  0.67770065  0.98638393     0.03200
C786        C  0.48829162  0.70890954  0.96584077    -0.10900
H787        H  0.48271769  0.76460668  0.53950922     0.08800
H788        H  0.49086642  0.65383357  0.54171702     0.06400
H789        H  0.48759764  0.70854430  0.93426602     0.06200
O790        O  0.39203413  0.50765312  0.77870135    -0.88100
C791        C  0.10121846  0.59557234  0.87755884     1.12000
O792        O  0.44165516  0.97412620  0.82040814    -1.35900
O793        O  0.07280466  0.59704930  0.77240816    -0.89600
O794        O  0.36033394  0.93951066  0.77563659    -0.90200
O795        O  0.44221612  0.93106207  0.73761787    -0.79000
O796        O  0.48254811  0.55266474  0.78380874    -1.01100
C797        C  0.06078526  0.97797223  0.75055297     1.22000
O798        O  0.48484048  0.93234564  0.82077046    -1.36000
Mn799      Mn  0.48381440  0.97426828  0.86330342     1.82100
O800        O  0.02814278  0.97553416  0.73883614    -0.78100
O801        O  0.11102071  0.56821679  0.78170715    -0.87500
C802        C  0.05727901  0.97328874  0.89317942     1.13100
C803        C  0.10312197  0.59275365  0.76366980     1.07800
O804        O  0.44036188  0.93149614  0.90302676    -0.79100
O805        O  0.02665011  0.51738474  0.82094130    -1.32700
O806        O  0.40485396  0.89422973  0.85633483    -0.98300
C807        C  0.48618667  0.85827658  0.76274014     1.06500
Mn808      Mn  0.08485493  0.52221520  0.82368995     1.48600
O809        O  0.45195365  0.85060026  0.77689913    -0.87500
Mn810      Mn  0.38430595  0.91940211  0.81982654     1.49600
O811        O  0.39399159  0.50746785  0.86640768    -0.91300
C812        C  0.48207905  0.54735553  0.74888045     1.19700
C813        C  0.36555770  0.97253317  0.87802863     1.11800
Mn814      Mn  0.48447827  0.97444655  0.77797444     1.81000
O815        O  0.06371272  0.97493503  0.85836314    -0.96500
Mn816      Mn  0.43782977  0.52819832  0.82139781     1.49300
C817        C  0.36541447  0.97365608  0.76393677     1.08300
Mn818      Mn  0.03981232  0.93027443  0.82054555     1.49900
C819        C  0.48608228  0.85690327  0.87711667     1.11200
O820        O  0.40570498  0.89481326  0.78417509    -1.02300
O821        O  0.10660012  0.56578712  0.86927324    -0.92000
C822        C  0.41025087  0.89991473  0.74924664     1.22500
O823        O  0.06583101  0.97757776  0.78560318    -1.02700
O824        O  0.07582497  0.60206609  0.85947590    -0.90100
O825        O  0.01981852  0.88445960  0.86284216    -0.89700
O826        O  0.35932776  0.93912926  0.86299699    -0.89700
Mn827      Mn  0.02974618  0.57485424  0.81820980     1.47900
O828        O  0.02547194  0.97288767  0.90408068    -0.78200
C829        C  0.40938546  0.89939016  0.89129126     1.15600
O830        O  0.48291537  0.51628563  0.73746118    -0.76900
O831        O  0.48394587  0.51710499  0.90269902    -0.76500
Mn832      Mn  0.43098609  0.87422749  0.82056803     1.51100
O833        O  0.02029283  0.88692629  0.77558679    -0.88900
O834        O  0.48524830  0.55530725  0.85658810    -0.96400
O835        O  0.45151395  0.85034265  0.86483437    -0.91400
C836        C  0.48610614  0.54976836  0.89153692     1.13300
C837        C  0.49190204  0.64476253  0.96465558    -0.05400
C838        C  0.46713353  0.60335476  0.97559946    -0.32800
C839        C  0.46642142  0.57185340  0.95330397     0.36500
C840        C  0.48962770  0.58150084  0.91888429    -0.05700
C841        C  0.51493881  0.62273752  0.90857158    -0.32700
C842        C  0.51710396  0.65419810  0.93152386     0.36400
H843        H  0.44737067  0.59529594  0.50080313     0.16700
O844        O  0.44071185  0.53180891  0.96378127    -0.60200
H845        H  0.03297402  0.63085359  0.88220398     0.16800
O846        O  0.04478788  0.69413070  0.92193215    -0.60300
H847        H  0.03590163  0.69896178  0.89619922     0.43800
H848        H  0.45682022  0.52518201  0.98216655     0.43700
C849        C  0.48931070  0.77461417  0.96214307    -0.05400
C850        C  0.45569027  0.78058263  0.96095316    -0.32800
C851        C  0.45471724  0.80839314  0.93450215     0.36500
C852        C  0.48760507  0.83053324  0.90849635    -0.05700
C853        C  0.52237584  0.82635248  0.91175996    -0.32700
C854        C  0.52325579  0.79850911  0.93806851     0.36400
H855        H  0.42946652  0.76254465  0.47958907     0.16700
O856        O  0.42129130  0.81331363  0.93417827    -0.60200
H857        H  0.54850063  0.84357292  0.89285160     0.16800
O858        O  0.55738953  0.79465125  0.94004374    -0.60300
H859        H  0.55575511  0.77819589  0.91689753     0.43800
H860        H  0.42782673  0.83555405  0.95317334     0.43700
C861        C  0.48175326  0.64158169  0.67831647    -0.05400
C862        C  0.46132658  0.60061832  0.66501594    -0.32800
C863        C  0.46238184  0.56949715  0.68661991     0.36500
C864        C  0.48314308  0.57887621  0.72254492    -0.05700
C865        C  0.00388218  0.61967271  0.73547035    -0.32700
C866        C  0.00423044  0.65090866  0.71346607     0.36400
H867        H  0.44380955  0.59244319  0.63818031     0.16700
O868        O  0.44213229  0.53002990  0.67291708    -0.60200
H869        H  0.02078649  0.62770310  0.76270439     0.16800
O870        O  0.02851821  0.69074373  0.72557523    -0.60300
H871        H  0.01651237  0.69296859  0.75048930     0.43800
H872        H  0.41384162  0.51788806  0.68302151     0.43700
C873        C  0.48605792  0.83161412  0.73068622    -0.05400
C874        C  0.44878573  0.80344518  0.71256882    -0.32800
C875        C  0.44680400  0.77431343  0.68606031     0.36500
C876        C  0.48237706  0.77326903  0.67681752    -0.05700
C877        C  0.51990616  0.80250459  0.69306110    -0.32700
C878        C  0.52210151  0.83170771  0.71955577     0.36400
H879        H  0.42072636  0.80298581  0.71991160     0.16700
O880        O  0.40976005  0.74611405  0.67031613    -0.60200
H881        H  0.54742819  0.80164582  0.68631134     0.16800
O882        O  0.55922688  0.85827498  0.73623316    -0.60300
H883        H  0.57348072  0.88067124  0.71696057     0.43800
H884        H  0.39809662  0.72273820  0.68879861     0.43700
C885        C  0.28034751  0.96890539  0.96388175    -0.05400
C886        C  0.27285065  0.93299815  0.94498388    -0.32800
C887        C  0.30103651  0.93328774  0.91849238     0.36500
C888        C  0.33748279  0.97041232  0.90967367    -0.05700
C889        C  0.34561169  0.00613471  0.93003763    -0.32700
C890        C  0.31748863  0.00545633  0.95713146     0.36400
H891        H  0.24423484  0.90471574  0.94987533     0.16700
O892        O  0.29115975  0.89747954  0.89961878    -0.60200
H893        H  0.37331135  0.03498067  0.92423872     0.16800
O894        O  0.32524214  0.04110780  0.47488239    -0.60300
H895        H  0.34192486  0.04355329  0.49817084     0.43800
H896        H  0.29754687  0.88154663  0.91844919     0.43700
C897        C  0.14822191  0.96731300  0.96396167    -0.05400
C898        C  0.10641759  0.94273562  0.97353790    -0.32800
C899        C  0.07610722  0.94550619  0.95206665     0.36500
C900        C  0.08741939  0.97251518  0.92014232    -0.05700
C901        C  0.12898158  0.99694929  0.91085316    -0.32700
C902        C  0.15920419  0.99535026  0.93284212     0.36400
H903        H  0.09711842  0.92075219  0.49717072     0.16700
O904        O  0.03561315  0.91980000  0.96080304    -0.60200
H905        H  0.13826294  0.51783479  0.88633781     0.16800
O906        O  0.19956539  0.52268554  0.92475099    -0.60300
H907        H  0.20482539  0.51455976  0.89889236     0.43800
H908        H  0.02886349  0.93486101  0.98023975     0.43700
C909        C  0.33812525  0.97351968  0.73254821    -0.05400
C910        C  0.31636421  0.93872544  0.70860152    -0.32800
C911        C  0.28710853  0.93612684  0.68168052     0.36500
C912        C  0.27868164  0.96823019  0.67894363    -0.05700
C913        C  0.30165073  0.00368256  0.70138214    -0.32700
C914        C  0.33145279  0.00679475  0.72758146     0.36400
H915        H  0.32136473  0.91304218  0.71128076     0.16700
O916        O  0.26509779  0.90110381  0.66010714    -0.60200
H917        H  0.29560969  0.02876487  0.69929640     0.16800
O918        O  0.35190335  0.04152912  0.74987559    -0.60300
H919        H  0.37564631  0.06096636  0.73382559     0.43800
H920        H  0.28315568  0.90384892  0.63799870     0.43700
C921        C  0.15130061  0.97518911  0.67667600    -0.05400
C922        C  0.16258344  0.99748401  0.71168901    -0.32800
C923        C  0.13349075  0.99872843  0.73554417     0.36500
C924        C  0.09212520  0.97948383  0.72375807    -0.05700
C925        C  0.08081373  0.95888491  0.68784335    -0.32700
C926        C  0.10988138  0.95608950  0.66457526     0.36400
H927        H  0.19419807  0.01345997  0.72130344     0.16700
O928        O  0.14602580  0.01895750  0.77052194    -0.60200
H929        H  0.04901260  0.94304219  0.67876496     0.16800
O930        O  0.09688479  0.93209843  0.63173959    -0.60300
H931        H  0.09026767  0.94757520  0.61255170     0.43800
H932        H  0.14704593  0.99912619  0.78880645     0.43700
C933        C  0.31256880  0.81074469  0.96417685    -0.05400
C934        C  0.32199152  0.79911867  0.92865067    -0.32800
C935        C  0.35363252  0.82756845  0.90514855     0.36500
C936        C  0.37802241  0.86859673  0.91761490    -0.05700
C937        C  0.36981936  0.88018691  0.95379505    -0.32700
C938        C  0.33683875  0.85182884  0.97667850     0.36400
H939        H  0.30444330  0.76770344  0.91861587     0.16700
O940        O  0.35992886  0.81509527  0.86952462    -0.60200
H941        H  0.38761740  0.91174405  0.96339758     0.16800
O942        O  0.32754009  0.86508012  0.01021680    -0.60300
H943        H  0.30817469  0.87417340  0.50202609     0.43800
H944        H  0.36910530  0.79524154  0.87518557     0.43700
C945        C  0.12565286  0.62527714  0.90878083    -0.05400
C946        C  0.12803346  0.66372683  0.90927053    -0.32800
C947        C  0.15285667  0.69393098  0.93615797     0.36500
C948        C  0.17542757  0.68594630  0.96371994    -0.05700
C949        C  0.17125806  0.64691817  0.96508764    -0.32700
C950        C  0.14687244  0.61676713  0.93772892     0.36400
H951        H  0.11173663  0.67119167  0.88782555     0.16700
O952        O  0.15513577  0.73132830  0.93522058    -0.60200
H953        H  0.18865276  0.64047323  0.98618702     0.16800
O954        O  0.14407756  0.57925694  0.93965019    -0.60300
H955        H  0.17052394  0.58379133  0.92938308     0.43800
H956        H  0.17203463  0.74564525  0.91207970     0.43700
C957        C  0.31588870  0.80862950  0.67589690    -0.05400
C958        C  0.30673673  0.81715336  0.71302028    -0.32800
C959        C  0.33706397  0.84689558  0.73671280     0.36500
C960        C  0.37768686  0.87036038  0.72295275    -0.05700
C961        C  0.38677928  0.86346469  0.68507279    -0.32700
C962        C  0.35641397  0.83232138  0.66181246     0.36400
H963        H  0.27581010  0.80017286  0.72427410     0.16700
O964        O  0.32681857  0.85182447  0.77390370    -0.60200
H965        H  0.41784306  0.88084863  0.67421094     0.16800
O966        O  0.36714171  0.82430448  0.62615618    -0.60300
H967        H  0.37374682  0.80240991  0.63106998     0.43800
H968        H  0.30678968  0.86124024  0.77091800     0.43700
C969        C  0.13174029  0.61791394  0.73202048    -0.05400
C970        C  0.17145521  0.62347674  0.73146415    -0.32800
C971        C  0.20075842  0.65000254  0.70467058     0.37500
C972        C  0.19055077  0.67106761  0.67717285    -0.05700
C973        C  0.15021577  0.66348299  0.67580913    -0.32700
C974        C  0.12092280  0.63717095  0.70287138     0.36400
H975        H  0.18054366  0.60846158  0.75287056     0.16700
O976        O  0.23944642  0.65536774  0.70560220    -0.60200
H977        H  0.14187733  0.67950061  0.65482109     0.16800
O978        O  0.08215693  0.63125664  0.70091861    -0.60300
H979        H  0.06687428  0.60742677  0.68332544     0.43800
H980        H  0.25222889  0.67090248  0.72987265     0.43700
C981        C  0.72275674  0.20517627  0.15390345     0.03200
C982        C  0.75551063  0.23759266  0.17341693    -0.12900
C983        C  0.78305273  0.27356892  0.15369787     0.00700
C984        C  0.77766775  0.27651584  0.11364711    -0.11400
C985        C  0.74714895  0.24291726  0.09227870     0.03200
C986        C  0.71928317  0.20735493  0.11334114    -0.10900
H987        H  0.75856435  0.23529389  0.20458577     0.08800
H988        H  0.79687188  0.30574452  0.09978607     0.06400
H989        H  0.69482698  0.18088260  0.09901441     0.06200
C990        C  0.70821450  0.21956937  0.48668902     0.03200
C991        C  0.74087981  0.25161458  0.46684657    -0.12900
C992        C  0.77652772  0.27970585  0.48666238     0.00700
C993        C  0.77858057  0.27577552  0.02719325    -0.11400
C994        C  0.74468822  0.24560544  0.04859303     0.03200
C995        C  0.70952153  0.21731805  0.02742702    -0.10900
H996        H  0.73920691  0.25336172  0.43541331     0.08800
H997        H  0.80757701  0.29540933  0.04129285     0.06400
H998        H  0.68291739  0.19307830  0.04172593     0.06200
C999        C  0.74392037  0.46458420  0.15575153     0.03200
C1000       C  0.74384532  0.46344480  0.11488527    -0.12900
C1001       C  0.71446395  0.46787287  0.09290418     0.00700
C1002       C  0.68521932  0.47322510  0.11388267    -0.11400
C1003       C  0.68292453  0.47078277  0.15474370     0.03200
C1004       C  0.71249944  0.46629115  0.17524960    -0.10900
H1005       H  0.76753940  0.46007359  0.10109926     0.08800
H1006       H  0.66477112  0.48082125  0.09916272     0.06400
H1007       H  0.71190593  0.46508471  0.20683026     0.06200
C1008       C  0.74682263  0.46838629  0.48645440     0.03200
C1009       C  0.71291296  0.46449274  0.46633736    -0.12900
C1010       C  0.68058100  0.46435096  0.48623152     0.00700
C1011       C  0.68061787  0.46382959  0.02717554    -0.11400
C1012       C  0.71449219  0.46761229  0.04871685     0.03200
C1013       C  0.74815337  0.47110806  0.02728292    -0.10900
H1014       H  0.71219760  0.46239610  0.43480583     0.08800
H1015       H  0.65402109  0.46101152  0.04147433     0.06400
H1016       H  0.77557570  0.47557467  0.04147312     0.06200
C1017       C  0.98023651  0.23887488  0.15451910     0.03200
C1018       C  0.98351958  0.24026346  0.11382771    -0.12900
C1019       C  0.98353140  0.20804237  0.09262902     0.00700
C1020       C  0.98209879  0.17545527  0.11465178    -0.11400
C1021       C  0.97978909  0.17437009  0.15558115     0.03200
C1022       C  0.97710944  0.20551810  0.17494566    -0.10900
H1023       H  0.98658137  0.26716214  0.09980225     0.08800
H1024       H  0.98360118  0.15076038  0.10093164     0.06400
H1025       H  0.97330906  0.20445467  0.20628234     0.06200
C1026       C  0.98746395  0.24076532  0.48536471     0.03200
C1027       C  0.98466371  0.23990648  0.02614627    -0.12900
C1028       C  0.98567601  0.20865759  0.04834045     0.00700
C1029       C  0.98887672  0.17800542  0.02732445    -0.11400
C1030       C  0.98956703  0.17764573  0.48636464     0.03200
C1031       C  0.98826514  0.20891863  0.46583315    -0.10900
H1032       H  0.98231966  0.26437632  0.03950565     0.08800
H1033       H  0.99129321  0.15406900  0.04175670     0.06400
H1034       H  0.98755700  0.20855700  0.43425848     0.06200
O1035       O  0.89201163  0.00762192  0.27870621    -0.88100
C1036       C  0.60120502  0.09558336  0.37755821     1.12000
O1037       O  0.94164746  0.47410846  0.32040599    -1.35900
O1038       O  0.57278635  0.09704734  0.27240270    -0.89600
O1039       O  0.86032443  0.43948039  0.27563561    -0.90200
O1040       O  0.94222229  0.43105237  0.23761664    -0.79000
O1041       O  0.98252561  0.05265157  0.28380647    -1.01100
C1042       C  0.56079369  0.47798884  0.25055653     1.22000
O1043       O  0.98485297  0.43234783  0.32077105    -1.36000
Mn1044     Mn  0.98380974  0.47426165  0.36330296     1.82100
O1045       O  0.52814723  0.47554109  0.23883938    -0.78100
O1046       O  0.61101274  0.06822902  0.28171706    -0.87500
C1047       C  0.55728281  0.47330258  0.39318524     1.13100
C1048       C  0.60310977  0.09275802  0.26367235     1.07800
O1049       O  0.94036204  0.43148364  0.40302157    -0.79100
O1050       O  0.52664259  0.01738532  0.32094231    -1.32700
O1051       O  0.90486068  0.39420629  0.35633103    -0.98300
C1052       C  0.98624052  0.35830234  0.26273932     1.06500
Mn1053     Mn  0.58485331  0.02223036  0.32369595     1.48600
O1054       O  0.95200009  0.35061304  0.27689219    -0.87500
Mn1055     Mn  0.88430568  0.41937531  0.31982343     1.49600
O1056       O  0.89396943  0.00743074  0.36640635    -0.91300
C1057       C  0.98204904  0.04733611  0.24887813     1.19700
C1058       C  0.86553974  0.47249359  0.37802400     1.11800
Mn1059     Mn  0.98447774  0.47444193  0.27797506     1.81000
O1060       O  0.56372174  0.47495437  0.35836947    -0.96500
Mn1061     Mn  0.93780873  0.02817365  0.32139752     1.49300
C1062       C  0.86539453  0.47362399  0.26394143     1.08300
Mn1063     Mn  0.53983985  0.43029897  0.32054904     1.49900
C1064       C  0.98612552  0.35692168  0.37711278     1.11200
O1065       O  0.90571662  0.39479727  0.28417284    -1.02300
O1066       O  0.60658853  0.06579919  0.36927633    -0.92000
C1067       C  0.91025996  0.39990151  0.24924490     1.22500
O1068       O  0.56584279  0.47759853  0.28560658    -1.02700
O1069       O  0.57580857  0.10207242  0.35947361    -0.90100
O1070       O  0.51986306  0.38448966  0.36284102    -0.89700
O1071       O  0.85931847  0.43909245  0.36299321    -0.89700
Mn1072     Mn  0.52972678  0.07484817  0.31820684     1.47900
O1073       O  0.52547149  0.47289369  0.40408361    -0.78200
C1074       C  0.90939242  0.39937156  0.39128723     1.15600
O1075       O  0.98289775  0.01627211  0.23746086    -0.76900
O1076       O  0.98392236  0.01708780  0.40269885    -0.76500
Mn1077     Mn  0.93101073  0.37422124  0.32056379     1.51100
O1078       O  0.52034195  0.38695597  0.27559231    -0.88900
O1079       O  0.98522507  0.05528804  0.35658613    -0.96400
O1080       O  0.95155156  0.35034645  0.36483068    -0.91400
C1081       C  0.98607539  0.04974704  0.39153514     1.13300
C1082       C  0.99175332  0.14470394  0.46462371    -0.05400
C1083       C  0.96698356  0.10329099  0.47555335    -0.32800
C1084       C  0.96631794  0.07180219  0.45327527     0.36500
C1085       C  0.98956161  0.08146514  0.41887917    -0.05700
C1086       C  0.01486824  0.12270395  0.40857756    -0.32700
C1087       C  0.01699681  0.15415328  0.43151904     0.36400
H1088       H  0.94756992  0.09537701  0.00088676     0.16700
O1089       O  0.94062344  0.03175323  0.46374790    -0.60200
H1090       H  0.53295330  0.13083259  0.38224483     0.16800
O1091       O  0.54471639  0.19408733  0.42197188    -0.60300
H1092       H  0.53587295  0.19893837  0.39622560     0.43800
H1093       H  0.95673498  0.02513949  0.48214214     0.43700
C1094       C  0.98941759  0.27468596  0.46215411    -0.05400
C1095       C  0.95579078  0.28064449  0.46097379    -0.32800
C1096       C  0.95479492  0.30843483  0.43451464     0.36500
C1097       C  0.98766709  0.33056451  0.40849225    -0.05700
C1098       C  0.02244491  0.32639240  0.41174320    -0.32700
C1099       C  0.02334528  0.29856546  0.43805878     0.36400
H1100       H  0.92935417  0.26248566  0.97956378     0.16700
O1101       O  0.92136173  0.31334376  0.43419727    -0.60200
H1102       H  0.04855707  0.34360441  0.39281853     0.16800
O1103       O  0.05747664  0.29470266  0.44001489    -0.60300
H1104       H  0.05580256  0.27820247  0.41689093     0.43800
H1105       H  0.92789358  0.33558313  0.45319274     0.43700
C1106       C  0.98158156  0.14150200  0.17832484    -0.05400
C1107       C  0.96113315  0.10052622  0.16505597    -0.32800
C1108       C  0.96224242  0.06942616  0.18664939     0.36500
C1109       C  0.98307115  0.07883520  0.22253912    -0.05700
C1110       C  0.50382184  0.11963685  0.23543702    -0.32700
C1111       C  0.50412332  0.15085319  0.21343915     0.36400
H1112       H  0.94356436  0.09232330  0.13825164     0.16700
O1113       O  0.94198599  0.02995046  0.17296901    -0.60200
H1114       H  0.52077456  0.12768909  0.26264382     0.16800
O1115       O  0.52843786  0.19069644  0.22551438    -0.60300
H1116       H  0.51647260  0.19294412  0.25044527     0.43800
H1117       H  0.91370106  0.01781489  0.18308556     0.43700
C1118       C  0.98613310  0.33165315  0.23068346    -0.05400
C1119       C  0.94887254  0.30349092  0.21254747    -0.32800
C1120       C  0.94690802  0.27437183  0.18603448     0.36500
C1121       C  0.98248761  0.27333446  0.17680221    -0.05700
C1122       C  0.02000769  0.30256393  0.19306468    -0.32700
C1123       C  0.02218528  0.33175443  0.21956721     0.36400
H1124       H  0.92080789  0.30302581  0.21987932     0.16700
O1125       O  0.90987210  0.24617534  0.17027361    -0.60200
H1126       H  0.04753321  0.30170730  0.18632730     0.16800
O1127       O  0.05929987  0.35831430  0.23626755    -0.60300
H1128       H  0.07356442  0.38072170  0.21700739     0.43800
H1129       H  0.89818208  0.22281165  0.18877028     0.43700
C1130       C  0.78031131  0.46884415  0.46386590    -0.05400
C1131       C  0.77282542  0.43293848  0.44497253    -0.32800
C1132       C  0.80101696  0.43323548  0.41848311     0.36500
C1133       C  0.83745776  0.47036559  0.40966429    -0.05700
C1134       C  0.84557273  0.50608735  0.43002071    -0.32700
C1135       C  0.81744391  0.50540199  0.45711034     0.36400
H1136       H  0.74421449  0.40465159  0.44986599     0.16700
O1137       O  0.79115013  0.39742981  0.39960952    -0.60200
H1138       H  0.87326531  0.53493834  0.42421820     0.16800
O1139       O  0.82530990  0.54116249  0.97491780    -0.60300
H1140       H  0.84202989  0.54361823  0.99817957     0.43800
H1141       H  0.79750856  0.38148455  0.41845297     0.43700
C1142       C  0.64820415  0.46728472  0.46396084    -0.05400
C1143       C  0.60639920  0.44272071  0.47353953    -0.32800
C1144       C  0.57609627  0.44550837  0.45207297     0.36500
C1145       C  0.58741678  0.47252095  0.42015058    -0.05700
C1146       C  0.62898015  0.49694585  0.41086248    -0.32700
C1147       C  0.65919572  0.49532898  0.43284643     0.36400
H1148       H  0.59715556  0.42079389  0.99717668     0.16700
O1149       O  0.53560036  0.41981493  0.46081173    -0.60200
H1150       H  0.63826542  0.01783974  0.38635375     0.16800
O1151       O  0.69955830  0.02266083  0.42476126    -0.60300
H1152       H  0.70481499  0.01453469  0.39890014     0.43800
H1153       H  0.52886261  0.43487939  0.48025434     0.43700
C1154       C  0.83809772  0.47348702  0.23256007    -0.05400
C1155       C  0.81631469  0.43868479  0.20862785    -0.32800
C1156       C  0.78706181  0.43609361  0.18170770     0.36500
C1157       C  0.77866213  0.46821413  0.17895472    -0.05700
C1158       C  0.80164853  0.50367121  0.20138156    -0.32700
C1159       C  0.83144627  0.50677500  0.22758163     0.36400
H1160       H  0.82129692  0.41299071  0.21131648     0.16700
O1161       O  0.76502888  0.40106358  0.16014931    -0.60200
H1162       H  0.79562549  0.52876490  0.19928524     0.16800
O1163       O  0.85191653  0.54151740  0.24986216    -0.60300
H1164       H  0.87565740  0.56094105  0.23380283     0.43800
H1165       H  0.78307072  0.40379384  0.13803146     0.43700
C1166       C  0.65130193  0.47520243  0.17667889    -0.05400
C1167       C  0.66258923  0.49750577  0.21168670    -0.32800
C1168       C  0.63349855  0.49875222  0.23554251     0.36500
C1169       C  0.59213133  0.47949997  0.22376128    -0.05700
C1170       C  0.58081523  0.45889072  0.18785198    -0.32700
C1171       C  0.60988142  0.45609466  0.16458334     0.36400
H1172       H  0.69420554  0.51348510  0.22129652     0.16700
O1173       O  0.64603658  0.51898927  0.27051618    -0.60200
H1174       H  0.54901237  0.44304096  0.17877892     0.16800
O1175       O  0.59688341  0.43209514  0.13175318    -0.60300
H1176       H  0.59026443  0.44756603  0.11256111     0.43800
H1177       H  0.64706199  0.49916324  0.28880446     0.43700
C1178       C  0.81256855  0.31074325  0.46417037    -0.05400
C1179       C  0.82201202  0.29910260  0.42866355    -0.32800
C1180       C  0.85366038  0.32754643  0.40516358     0.36500
C1181       C  0.87803186  0.36858247  0.41761368    -0.05700
C1182       C  0.86980671  0.38018700  0.45377554    -0.32700
C1183       C  0.83682104  0.35183435  0.47665587     0.36400
H1184       H  0.80447271  0.26768161  0.41864233     0.16700
O1185       O  0.85997911  0.31506197  0.36955527    -0.60200
H1186       H  0.88758936  0.41175071  0.46336298     0.16800
O1187       O  0.82749741  0.36509697  0.51017229    -0.60300
H1188       H  0.80822215  0.37417494  0.00209927     0.43800
H1189       H  0.86914255  0.29520345  0.37523897     0.43700
C1190       C  0.62564194  0.12528949  0.40877867    -0.05400
C1191       C  0.62800019  0.16372885  0.40928721    -0.32800
C1192       C  0.65282855  0.19393435  0.43617177     0.36500
C1193       C  0.67542314  0.18595927  0.46371374    -0.05700
C1194       C  0.67128157  0.14694301  0.46506015    -0.32700
C1195       C  0.64689481  0.11679273  0.43770254     0.36400
H1196       H  0.61168313  0.17118557  0.38785821     0.16700
O1197       O  0.65509146  0.23132437  0.43524898    -0.60200
H1198       H  0.68869959  0.14050854  0.48614094     0.16800
O1199       O  0.64413638  0.07929785  0.43959841    -0.60300
H1200       H  0.67057364  0.08385271  0.42928261     0.43800
H1201       H  0.67200737  0.24566150  0.41212402     0.43700
C1202       C  0.81589475  0.30861248  0.17590116    -0.05400
C1203       C  0.80674308  0.31714017  0.21302292    -0.32800
C1204       C  0.83707089  0.34688569  0.23671308     0.36500
C1205       C  0.87769395  0.37034839  0.22295205    -0.05700
C1206       C  0.88678518  0.36345001  0.18507299    -0.32700
C1207       C  0.85641954  0.33230443  0.16181521     0.36400
H1208       H  0.77581669  0.30016012  0.22427737     0.16700
O1209       O  0.82682673  0.35181845  0.27390341    -0.60200
H1210       H  0.91784875  0.38083284  0.17421040     0.16800
O1211       O  0.86714703  0.32428498  0.12616000    -0.60300
H1212       H  0.87374659  0.30238688  0.13107479     0.43800
H1213       H  0.80678384  0.36121534  0.27091754     0.43700
C1214       C  0.63173206  0.11791327  0.23202396    -0.05400
C1215       C  0.67144407  0.12346712  0.23147312    -0.32800
C1216       C  0.70075220  0.14998518  0.20467981     0.37500
C1217       C  0.69055267  0.17105118  0.17717629    -0.05700
C1218       C  0.65021986  0.16347375  0.17580582    -0.32700
C1219       C  0.62092158  0.13716962  0.20286878     0.36400
H1220       H  0.68052723  0.10845130  0.25288384     0.16700
O1221       O  0.73943713  0.15534277  0.20561812    -0.60200
H1222       H  0.64188803  0.17949227  0.15481257     0.16800
O1223       O  0.58215890  0.13126440  0.20091232    -0.60300
H1224       H  0.56686840  0.10742385  0.18333274     0.43800
H1225       H  0.75221990  0.17088139  0.22988760     0.43700
C1226       C  0.72274579  0.20520916  0.65387173     0.03200
C1227       C  0.75550186  0.23762195  0.67338476    -0.12900
C1228       C  0.78304125  0.27360056  0.65366871     0.00700
C1229       C  0.77765608  0.27655148  0.61361877    -0.11400
C1230       C  0.74713597  0.24295461  0.59224886     0.03200
C1231       C  0.71926660  0.20739281  0.61331053    -0.10900
H1232       H  0.75855906  0.23531856  0.70455244     0.08800
H1233       H  0.79686182  0.30578097  0.59975977     0.06400
H1234       H  0.69480700  0.18092337  0.59898353     0.06200
C1235       C  0.70819161  0.21955065  0.98673032     0.03200
C1236       C  0.74084521  0.25160854  0.96688706    -0.12900
C1237       C  0.77650456  0.27969419  0.98669280     0.00700
C1238       C  0.77858561  0.27580349  0.52716661    -0.11400
C1239       C  0.74468559  0.24563930  0.54856156     0.03200
C1240       C  0.70952603  0.21734907  0.52738853    -0.10900
H1241       H  0.73915444  0.25336831  0.93545728     0.08800
H1242       H  0.80757626  0.29544582  0.54127237     0.06400
H1243       H  0.68291528  0.19311440  0.54168414     0.06200
C1244       C  0.74392871  0.46460798  0.65573834     0.03200
C1245       C  0.74385289  0.46346110  0.61487231    -0.12900
C1246       C  0.71446006  0.46786692  0.59288773     0.00700
C1247       C  0.68520899  0.47321343  0.61386389    -0.11400
C1248       C  0.68291523  0.47077886  0.65472622     0.03200
C1249       C  0.71249791  0.46630040  0.67523331    -0.10900
H1250       H  0.76755522  0.46010161  0.60108938     0.08800
H1251       H  0.66475469  0.48079871  0.59914097     0.06400
H1252       H  0.71190306  0.46509257  0.70681377     0.06200
C1253       C  0.74684578  0.46844030  0.98647404     0.03200
C1254       C  0.71293835  0.46455086  0.96635534    -0.12900
C1255       C  0.68059911  0.46439678  0.98624850     0.00700
C1256       C  0.68060590  0.46379885  0.52715804    -0.11400
C1257       C  0.71448183  0.46758667  0.54869928     0.03200
C1258       C  0.74813722  0.47106871  0.52726339    -0.10900
H1259       H  0.71222738  0.46245901  0.93482370     0.08800
H1260       H  0.65401330  0.46099222  0.54145515     0.06400
H1261       H  0.77556125  0.47553775  0.54145133     0.06200
C1262       C  0.98000658  0.23874846  0.65453480     0.03200
C1263       C  0.98310372  0.24007243  0.61382945    -0.12900
C1264       C  0.98356053  0.20807404  0.59263005     0.00700
C1265       C  0.98261140  0.17572784  0.61467444    -0.11400
C1266       C  0.98012809  0.17453721  0.65558981     0.03200
C1267       C  0.97718321  0.20552653  0.67496211    -0.10900
H1268       H  0.98566926  0.26676062  0.59981307     0.08800
H1269       H  0.98467350  0.15132225  0.60101046     0.06400
H1270       H  0.97340085  0.20444735  0.70630108     0.06200
C1271       C  0.98721986  0.24061371  0.98536921     0.03200
C1272       C  0.98507562  0.24014971  0.52614832    -0.12900
C1273       C  0.98567540  0.20867672  0.54832967     0.00700
C1274       C  0.98842450  0.17777746  0.52728183    -0.11400
C1275       C  0.98985757  0.17777523  0.98640486     0.03200
C1276       C  0.98828939  0.20889666  0.96585553    -0.10900
H1277       H  0.98320249  0.26488362  0.53950406     0.08800
H1278       H  0.99032242  0.15353707  0.54167951     0.06400
H1279       H  0.98758413  0.20852081  0.93428141     0.06200
O1280       O  0.89205147  0.00765192  0.77868903    -0.88100
C1281       C  0.60122084  0.09559575  0.87756264     1.12000
O1282       O  0.94163437  0.47411557  0.82041025    -1.35900
O1283       O  0.57281720  0.09707358  0.77240203    -0.89600
O1284       O  0.86031627  0.43951577  0.77563342    -0.90200
O1285       O  0.94219820  0.43105651  0.73761805    -0.79000
O1286       O  0.98256442  0.05267376  0.78380511    -1.01100
C1287       C  0.56075734  0.47793690  0.75055547     1.22000
O1288       O  0.98480628  0.43232182  0.82077260    -1.36000
Mn1289     Mn  0.98378905  0.47424552  0.86330655     1.82100
O1290       O  0.52812003  0.47551180  0.73884009    -0.78100
O1291       O  0.61104333  0.06825401  0.78170545    -0.87500
C1292       C  0.55725694  0.47326272  0.89318308     1.13100
C1293       C  0.60313797  0.09278382  0.76366420     1.07800
O1294       O  0.94033101  0.43147553  0.90302746    -0.79100
O1295       O  0.52666980  0.01740869  0.82093564    -1.32700
O1296       O  0.90481573  0.39422146  0.85633277    -0.98300
C1297       C  0.98611939  0.35824016  0.76274116     1.06500
Mn1298     Mn  0.58487836  0.02225173  0.82368657     1.48600
O1299       O  0.95189148  0.35057594  0.77689987    -0.87500
Mn1300     Mn  0.88427877  0.41939956  0.81982235     1.49600
O1301       O  0.89400213  0.00747395  0.86639635    -0.91300
C1302       C  0.98210684  0.04737417  0.74887677     1.19700
C1303       C  0.86554005  0.47252755  0.87803188     1.11800
Mn1304     Mn  0.98445779  0.47443129  0.77797847     1.81000
O1305       O  0.56368717  0.47490058  0.85836631    -0.96500
Mn1306     Mn  0.93784283  0.02820551  0.82138976     1.49300
C1307       C  0.86539674  0.47366355  0.76394311     1.08300
Mn1308     Mn  0.53976917  0.43023227  0.82055239     1.49900
C1309       C  0.98600588  0.35686406  0.87712727     1.11200
O1310       O  0.90567449  0.39481030  0.78417049    -1.02300
O1311       O  0.60661001  0.06581590  0.86927513    -0.92000
C1312       C  0.91022722  0.39991391  0.74924263     1.22500
O1313       O  0.56580135  0.47753619  0.78560578    -1.02700
O1314       O  0.57583296  0.10209228  0.85947280    -0.90100
O1315       O  0.51975592  0.38441749  0.86285942    -0.89700
O1316       O  0.85930137  0.43912508  0.86299110    -0.89700
Mn1317     Mn  0.52975893  0.07487458  0.81820419     1.47900
O1318       O  0.52544946  0.47286238  0.90408296    -0.78200
C1319       C  0.90934636  0.39937833  0.89128971     1.15600
O1320       O  0.98293567  0.01630109  0.73745520    -0.76900
O1321       O  0.98396685  0.01713027  0.90269541    -0.76500
Mn1322     Mn  0.93093830  0.37421177  0.82056637     1.51100
O1323       O  0.52023312  0.38687725  0.77559264    -0.88900
O1324       O  0.98526004  0.05532453  0.85658229    -0.96400
O1325       O  0.95144535  0.35031248  0.86483283    -0.91400
C1326       C  0.98612851  0.04979437  0.89153155     1.13300
C1327       C  0.99207263  0.14484410  0.96468126    -0.05400
C1328       C  0.96735447  0.10344591  0.97567536    -0.32800
C1329       C  0.96658413  0.07192847  0.95335847     0.36500
C1330       C  0.98969213  0.08154988  0.91887654    -0.05700
C1331       C  0.01496044  0.12278112  0.90851487    -0.32700
C1332       C  0.01717346  0.15425849  0.93147775     0.36400
H1333       H  0.94709671  0.09518610  0.50068911     0.16700
O1334       O  0.94090534  0.03189194  0.96388038    -0.60200
H1335       H  0.53294298  0.13088155  0.88211541     0.16800
O1336       O  0.54482288  0.19418731  0.92184244    -0.60300
H1337       H  0.53586776  0.19898154  0.89613095     0.43800
H1338       H  0.95706126  0.02528459  0.98222378     0.43700
C1339       C  0.98915928  0.27452865  0.96214954    -0.05400
C1340       C  0.95553342  0.28048648  0.96092897    -0.32800
C1341       C  0.95458687  0.30831779  0.93448477     0.36500
C1342       C  0.98750440  0.33048548  0.90851386    -0.05700
C1343       C  0.02227889  0.32631786  0.91181499    -0.32700
C1344       C  0.02313611  0.29846034  0.93811963     0.36400
H1345       H  0.92964193  0.26266624  0.47964990     0.16700
O1346       O  0.92115888  0.31323402  0.93413524    -0.60200
H1347       H  0.04842769  0.34356173  0.89293963     0.16800
O1348       O  0.05728314  0.29462800  0.94013839    -0.60300
H1349       H  0.05570661  0.27821583  0.91697777     0.43800
H1350       H  0.92766847  0.33545216  0.95314876     0.43700
C1351       C  0.98193509  0.14167087  0.67830637    -0.05400
C1352       C  0.96154238  0.10072335  0.66496370    -0.32800
C1353       C  0.96253792  0.06957724  0.68657736     0.36500
C1354       C  0.98321430  0.07891904  0.72254671    -0.05700
C1355       C  0.50392596  0.11970220  0.73551097    -0.32700
C1356       C  0.50432498  0.15096159  0.71350382     0.36400
H1357       H  0.94409132  0.09258194  0.63808846     0.16700
O1358       O  0.94230756  0.03012238  0.67284144    -0.60200
H1359       H  0.52076787  0.12770547  0.76277996     0.16800
O1360       O  0.52857126  0.19078493  0.72566233    -0.60300
H1361       H  0.51651046  0.19297294  0.75055646     0.43800
H1362       H  0.91400729  0.01796354  0.68292947     0.43700
C1363       C  0.98597259  0.33157245  0.73068389    -0.05400
C1364       C  0.94869334  0.30341773  0.71256475    -0.32800
C1365       C  0.94669204  0.27427440  0.68605814     0.36500
C1366       C  0.98225135  0.27320132  0.67682595    -0.05700
C1367       C  0.01978752  0.30242609  0.69306831    -0.32700
C1368       C  0.02200348  0.33164335  0.71955430     0.36400
H1369       H  0.92064355  0.30297904  0.71990465     0.16700
O1370       O  0.90964374  0.24609263  0.67030934    -0.60200
H1371       H  0.04730124  0.30155096  0.68631942     0.16800
O1372       O  0.05913668  0.35820453  0.73622143    -0.60300
H1373       H  0.07337296  0.38061756  0.71696100     0.43800
H1374       H  0.89798010  0.22270079  0.68877466     0.43700
C1375       C  0.78033318  0.46889407  0.96388835    -0.05400
C1376       C  0.77284628  0.43298325  0.94500560    -0.32800
C1377       C  0.80103272  0.43327460  0.91851375     0.36500
C1378       C  0.83746724  0.47040496  0.90967908    -0.05700
C1379       C  0.84558579  0.50613111  0.93002912    -0.32700
C1380       C  0.81746434  0.50545043  0.95712482     0.36400
H1381       H  0.74423809  0.40469644  0.94990910     0.16700
O1382       O  0.79116714  0.39746163  0.89965525    -0.60200
H1383       H  0.87327486  0.53498184  0.92421682     0.16800
O1384       O  0.82528365  0.54111185  0.47490404    -0.60300
H1385       H  0.84197812  0.54355367  0.49818249     0.43800
H1386       H  0.79753764  0.38153016  0.91850353     0.43700
C1387       C  0.64821255  0.46731502  0.96397567    -0.05400
C1388       C  0.60640954  0.44274776  0.97356205    -0.32800
C1389       C  0.57609677  0.44551271  0.95208897     0.36500
C1390       C  0.58740339  0.47250160  0.92014891    -0.05700
C1391       C  0.62896479  0.49692968  0.91085225    -0.32700
C1392       C  0.65919081  0.49534071  0.93284613     0.36400
H1393       H  0.59713696  0.42075305  0.49714277     0.16700
O1394       O  0.53560442  0.41981935  0.96084072    -0.60200
H1395       H  0.63828763  0.01786624  0.88633519     0.16800
O1396       O  0.69958682  0.02269742  0.92473592    -0.60300
H1397       H  0.70484517  0.01456865  0.89887711     0.43800
H1398       H  0.52886320  0.43490193  0.98026080     0.43700
C1399       C  0.83810797  0.47353258  0.73255829    -0.05400
C1400       C  0.81637217  0.43875462  0.70858691    -0.32800
C1401       C  0.78712190  0.43616065  0.68166185     0.36500
C1402       C  0.77867515  0.46825186  0.67894564    -0.05700
C1403       C  0.80161810  0.50368855  0.70141203    -0.32700
C1404       C  0.83141392  0.50679605  0.72761669     0.36400
H1405       H  0.82138946  0.41308064  0.71124875     0.16700
O1406       O  0.76513477  0.40115166  0.66006379    -0.60200
H1407       H  0.79556093  0.52876114  0.69934372     0.16800
O1408       O  0.85183597  0.54151144  0.74994053    -0.60300
H1409       H  0.87558066  0.56097440  0.73390685     0.43800
H1410       H  0.78320971  0.40391932  0.63796310     0.43700
C1411       C  0.65128500  0.47518952  0.67666322    -0.05400
C1412       C  0.66256355  0.49747759  0.71168056    -0.32800
C1413       C  0.63346700  0.49870795  0.73554167     0.36500
C1414       C  0.59210059  0.47945774  0.72375728    -0.05700
C1415       C  0.58079340  0.45886882  0.68783703    -0.32700
C1416       C  0.60986539  0.45608603  0.66456326     0.36400
H1417       H  0.69417827  0.51345774  0.72129473     0.16700
O1418       O  0.64599963  0.51892945  0.77052323    -0.60200
H1419       H  0.54899249  0.44302417  0.67875810     0.16800
O1420       O  0.59687302  0.43210380  0.63172185    -0.60300
H1421       H  0.59025707  0.44758482  0.61253880     0.43800
H1422       H  0.64702419  0.49909579  0.78880225     0.43700
C1423       C  0.81253510  0.31073933  0.96418901    -0.05400
C1424       C  0.82192917  0.29911832  0.92864446    -0.32800
C1425       C  0.85356253  0.32756672  0.90513506     0.36500
C1426       C  0.87797751  0.36858795  0.91761198    -0.05700
C1427       C  0.86980260  0.38017334  0.95380822    -0.32700
C1428       C  0.83682771  0.35181791  0.97669953     0.36400
H1429       H  0.80436644  0.26770730  0.91860150     0.16700
O1430       O  0.85983092  0.31509724  0.86949697    -0.60200
H1431       H  0.88762052  0.41172545  0.96342036     0.16800
O1432       O  0.82755882  0.36506729  0.01025633    -0.60300
H1433       H  0.80814220  0.37416276  0.50196550     0.43800
H1434       H  0.86900770  0.29524061  0.87513611     0.43700
C1435       C  0.62563838  0.12528991  0.90879660    -0.05400
C1436       C  0.62802405  0.16374144  0.90928490    -0.32800
C1437       C  0.65283705  0.19393860  0.93618173     0.36500
C1438       C  0.67539290  0.18594493  0.96375401    -0.05700
C1439       C  0.67121005  0.14691106  0.96512736    -0.32700
C1440       C  0.64683326  0.11676623  0.93775991     0.36400
H1441       H  0.61174087  0.17121376  0.88783094     0.16700
O1442       O  0.65512381  0.23133951  0.93524175    -0.60200
H1443       H  0.68859019  0.14045748  0.98623641     0.16800
O1444       O  0.64402194  0.07924869  0.93968752    -0.60300
H1445       H  0.67047571  0.08377669  0.92944988     0.43800
H1446       H  0.67201381  0.24564891  0.91209489     0.43700
C1447       C  0.81587920  0.30864107  0.67587710    -0.05400
C1448       C  0.80672077  0.31715954  0.71299993    -0.32800
C1449       C  0.83704359  0.34689790  0.73669780     0.36500
C1450       C  0.87766796  0.37036493  0.72294339    -0.05700
C1451       C  0.88676680  0.36347670  0.68506327    -0.32700
C1452       C  0.85640591  0.33233623  0.66179771     0.36400
H1453       H  0.77579260  0.30017670  0.72424959     0.16700
O1454       O  0.82679249  0.35182015  0.77388846    -0.60200
H1455       H  0.91783211  0.38086338  0.67420565     0.16800
O1456       O  0.86713938  0.32432453  0.62614196    -0.60300
H1457       H  0.87376421  0.30244435  0.63105834     0.43800
H1458       H  0.80677102  0.36124459  0.77090193     0.43700
C1459       C  0.63175048  0.11794009  0.73200908    -0.05400
C1460       C  0.67146045  0.12349049  0.73143771    -0.32800
C1461       C  0.70075802  0.15000997  0.70463674     0.37500
C1462       C  0.69054952  0.17108095  0.67714690    -0.05700
C1463       C  0.65021904  0.16350917  0.67579793    -0.32700
C1464       C  0.62093171  0.13720311  0.70286696     0.36400
H1465       H  0.68055010  0.10847046  0.75283756     0.16700
O1466       O  0.73944233  0.15536522  0.70555472    -0.60200
H1467       H  0.64188069  0.17953264  0.65481656     0.16800
O1468       O  0.58217017  0.13130029  0.70092677    -0.60300
H1469       H  0.56687496  0.10746474  0.68334219     0.43800
H1470       H  0.75223683  0.17090390  0.72981992     0.43700
C1471       C  0.72275348  0.70519022  0.15387748     0.03200
C1472       C  0.75550669  0.73760474  0.17339218    -0.12900
C1473       C  0.78304885  0.77358147  0.15367505     0.00700
C1474       C  0.77766768  0.77652955  0.11362401    -0.11400
C1475       C  0.74715082  0.74293126  0.09225355     0.03200
C1476       C  0.71928083  0.70736990  0.11331514    -0.10900
H1477       H  0.75855926  0.73530432  0.20456107     0.08800
H1478       H  0.79687364  0.80575874  0.09976467     0.06400
H1479       H  0.69482360  0.68089889  0.09898790     0.06200
C1480       C  0.70818644  0.71956605  0.48672175     0.03200
C1481       C  0.74084600  0.75161405  0.46687619    -0.12900
C1482       C  0.77650212  0.77970082  0.48668416     0.00700
C1483       C  0.77859665  0.77578768  0.02717219    -0.11400
C1484       C  0.74469976  0.74561752  0.04856662     0.03200
C1485       C  0.70954013  0.71732686  0.02739398    -0.10900
H1486       H  0.73916224  0.75336564  0.43544461     0.08800
H1487       H  0.80758868  0.79542656  0.04127693     0.06400
H1488       H  0.68293270  0.69308710  0.04168887     0.06200
C1489       C  0.74392130  0.96461066  0.15574616     0.03200
C1490       C  0.74385471  0.96347822  0.11487993    -0.12900
C1491       C  0.71447142  0.96789913  0.09289489     0.00700
C1492       C  0.68521734  0.97324104  0.11387035    -0.11400
C1493       C  0.68291736  0.97079570  0.15473198     0.03200
C1494       C  0.71249234  0.96630629  0.17524003    -0.10900
H1495       H  0.76755571  0.96011621  0.10109714     0.08800
H1496       H  0.66476548  0.98083045  0.09914786     0.06400
H1497       H  0.71189248  0.96509239  0.20682041     0.06200
C1498       C  0.74680674  0.96837440  0.48646095     0.03200
C1499       C  0.71289955  0.96449063  0.46634676    -0.12900
C1500       C  0.68056930  0.96434889  0.48624510     0.00700
C1501       C  0.68063053  0.96384599  0.02716154    -0.11400
C1502       C  0.71450547  0.96763677  0.04870680     0.03200
C1503       C  0.74817008  0.97113407  0.02727580    -0.10900
H1504       H  0.71218423  0.96239955  0.43481488     0.08800
H1505       H  0.65403216  0.96102835  0.04145657     0.06400
H1506       H  0.77559299  0.97560575  0.04146864     0.06200
C1507       C  0.98010470  0.73880508  0.15452419     0.03200
C1508       C  0.98328985  0.74015881  0.11382526    -0.12900
C1509       C  0.98353273  0.70805234  0.09262697     0.00700
C1510       C  0.98235171  0.67559062  0.11466307    -0.11400
C1511       C  0.97994993  0.67445071  0.15558517     0.03200
C1512       C  0.97713286  0.70551744  0.17495231    -0.10900
H1513       H  0.98609471  0.76694917  0.09980430     0.08800
H1514       H  0.98414818  0.65104599  0.10097486     0.06400
H1515       H  0.97334070  0.70444658  0.20628996     0.06200
C1516       C  0.98732178  0.74068212  0.48537080     0.03200
C1517       C  0.98487762  0.74003176  0.02614121    -0.12900
C1518       C  0.98566516  0.70866137  0.04833153     0.00700
C1519       C  0.98862529  0.67787597  0.02730067    -0.11400
C1520       C  0.98972561  0.67772082  0.48638309     0.03200
C1521       C  0.98826796  0.70890746  0.46584550    -0.10900
H1522       H  0.98278010  0.76464151  0.03949639     0.08800
H1523       H  0.99076072  0.65377407  0.04171433     0.06400
H1524       H  0.98755291  0.70853746  0.43427137     0.06200
O1525       O  0.89202823  0.50761669  0.27869372    -0.88100
C1526       C  0.60120782  0.59560660  0.37756300     1.12000
O1527       O  0.94162707  0.97409870  0.32040841    -1.35900
O1528       O  0.57280090  0.59707289  0.27239803    -0.89600
O1529       O  0.86030720  0.93948641  0.27563302    -0.90200
O1530       O  0.94220417  0.93104732  0.23761700    -0.79000
O1531       O  0.98254100  0.55265790  0.28380189    -1.01100
C1532       C  0.56076635  0.97795528  0.25056100     1.22000
O1533       O  0.98481927  0.93232482  0.32077272    -1.36000
Mn1534     Mn  0.98378507  0.97423989  0.36330563     1.82100
O1535       O  0.52812494  0.97551993  0.23884470    -0.78100
O1536       O  0.61103635  0.56826608  0.28171577    -0.87500
C1537       C  0.55725679  0.97327301  0.39319087     1.13100
C1538       C  0.60312716  0.59278873  0.26366773     1.07800
O1539       O  0.94033229  0.93146377  0.40302208    -0.79100
O1540       O  0.52666337  0.51740997  0.32093657    -1.32700
O1541       O  0.90482305  0.89419833  0.35632919    -0.98300
C1542       C  0.98617373  0.85826634  0.26273971     1.06500
Mn1543     Mn  0.58487733  0.52226666  0.32369340     1.48600
O1544       O  0.95193868  0.85058987  0.27689241    -0.87500
Mn1545     Mn  0.88427885  0.91937344  0.31981984     1.49600
O1546       O  0.89397960  0.50743567  0.36639479    -0.91300
C1547       C  0.98207512  0.54735152  0.24887358     1.19700
C1548       C  0.86552191  0.97248899  0.37802783     1.11800
Mn1549     Mn  0.98445721  0.97442740  0.27797890     1.81000
O1550       O  0.56369371  0.97491799  0.35837477    -0.96500
Mn1551     Mn  0.93782138  0.52817864  0.32138896     1.49300
C1552       C  0.86537792  0.97363255  0.26394810     1.08300
Mn1553     Mn  0.53979533  0.93025670  0.32055612     1.49900
C1554       C  0.98605107  0.85688371  0.37712271     1.11200
O1555       O  0.90568612  0.89479461  0.28416852    -1.02300
O1556       O  0.60659911  0.56582798  0.36927890    -0.92000
C1557       C  0.91023637  0.89990098  0.24924116     1.22500
O1558       O  0.56581271  0.97755796  0.28561125    -1.02700
O1559       O  0.57581681  0.60209838  0.35947177    -0.90100
O1560       O  0.51979819  0.88444607  0.36285614    -0.89700
O1561       O  0.85929227  0.93908919  0.36298816    -0.89700
Mn1562     Mn  0.52974092  0.57486933  0.31820136     1.47900
O1563       O  0.52544509  0.97286520  0.40408723    -0.78200
C1564       C  0.90935454  0.89936008  0.39128582     1.15600
O1565       O  0.98291610  0.51628413  0.23745428    -0.76900
O1566       O  0.98394478  0.51711318  0.40269454    -0.76500
Mn1567     Mn  0.93096370  0.87420623  0.32056196     1.51100
O1568       O  0.52028172  0.88690884  0.27559711    -0.88900
O1569       O  0.98523700  0.55530438  0.35657900    -0.96400
O1570       O  0.95148485  0.85031734  0.36482838    -0.91400
C1571       C  0.98609834  0.54977259  0.39152845     1.13300
C1572       C  0.99192506  0.64478523  0.46464716    -0.05400
C1573       C  0.96719864  0.60338161  0.47562330    -0.32800
C1574       C  0.96647383  0.57187626  0.45332380     0.36500
C1575       C  0.98962575  0.58151344  0.41886957    -0.05700
C1576       C  0.01489489  0.62274689  0.40852212    -0.32700
C1577       C  0.01707201  0.65421320  0.43147430     0.36400
H1578       H  0.94728622  0.59526747  0.00076393     0.16700
O1579       O  0.94080322  0.53183515  0.46383638    -0.60200
H1580       H  0.53291365  0.63086002  0.38214421     0.16800
O1581       O  0.54474314  0.69414600  0.42186522    -0.60300
H1582       H  0.53582323  0.69895478  0.39614131     0.43800
H1583       H  0.95695794  0.52523381  0.48218687     0.43700
C1584       C  0.98926635  0.77459986  0.46215884    -0.05400
C1585       C  0.95563287  0.78054549  0.46094549    -0.32800
C1586       C  0.95466448  0.80835768  0.43449398     0.36500
C1587       C  0.98756826  0.83051791  0.40850916    -0.05700
C1588       C  0.02235111  0.82636140  0.41180037    -0.32700
C1589       C  0.02322807  0.79851960  0.43811168     0.36400
H1590       H  0.92952630  0.76260197  0.97961789     0.16700
O1591       O  0.92122825  0.81326052  0.43414933    -0.60200
H1592       H  0.04848894  0.84359946  0.39291124     0.16800
O1593       O  0.05737436  0.79468527  0.44011455    -0.60300
H1594       H  0.05576133  0.77822940  0.41697742     0.43800
H1595       H  0.92773160  0.83547579  0.45316576     0.43700
C1596       C  0.98175023  0.64158339  0.17831563    -0.05400
C1597       C  0.96133801  0.60062325  0.16500487    -0.32800
C1598       C  0.96239258  0.56950023  0.18660676     0.36500
C1599       C  0.98313841  0.57887367  0.22253995    -0.05700
C1600       C  0.50386460  0.61966807  0.23547726    -0.32700
C1601       C  0.50421393  0.65090678  0.21347695     0.36400
H1602       H  0.94383321  0.59245210  0.13816192     0.16700
O1603       O  0.94215828  0.53003704  0.17289286    -0.60200
H1604       H  0.52075577  0.62769396  0.26271871     0.16800
O1605       O  0.52848575  0.69073861  0.22560144    -0.60300
H1606       H  0.51646493  0.69294903  0.25051154     0.43800
H1607       H  0.91386622  0.51787949  0.18299996     0.43700
C1608       C  0.98604708  0.83161106  0.23068059    -0.05400
C1609       C  0.94877885  0.80346392  0.21254320    -0.32800
C1610       C  0.94679310  0.77433220  0.18603246     0.36500
C1611       C  0.98235792  0.77326407  0.17681079    -0.05700
C1612       C  0.01988569  0.80248182  0.19307164    -0.32700
C1613       C  0.02208557  0.83168767  0.21956507     0.36400
H1614       H  0.92072452  0.80302100  0.21987212     0.16700
O1615       O  0.90975223  0.74615469  0.17026702    -0.60200
H1616       H  0.04740209  0.80160732  0.18633501     0.16800
O1617       O  0.05920854  0.85824086  0.23625451    -0.60300
H1618       H  0.07345848  0.88066150  0.21700343     0.43800
H1619       H  0.89806150  0.72277427  0.18874613     0.43700
C1620       C  0.78029459  0.96883480  0.46387102    -0.05400
C1621       C  0.77281689  0.93292622  0.44498994    -0.32800
C1622       C  0.80100961  0.93322455  0.41850111     0.36500
C1623       C  0.83744087  0.97035941  0.40966934    -0.05700
C1624       C  0.84554674  0.00608425  0.43001391    -0.32700
C1625       C  0.81741939  0.00539687  0.45710528     0.36400
H1626       H  0.74421213  0.90463575  0.44989312     0.16700
O1627       O  0.79115281  0.89741459  0.39964101    -0.60200
H1628       H  0.87323027  0.03493931  0.42420017     0.16800
O1629       O  0.82535286  0.04116489  0.97494510    -0.60300
H1630       H  0.84208556  0.04361470  0.99819424     0.43800
H1631       H  0.79749701  0.88147180  0.41849905     0.43700
C1632       C  0.64819017  0.96728433  0.46397847    -0.05400
C1633       C  0.60638607  0.94272407  0.47356268    -0.32800
C1634       C  0.57608033  0.94550500  0.45209365     0.36500
C1635       C  0.58739580  0.97250309  0.42015991    -0.05700
C1636       C  0.62895881  0.99692775  0.41086896    -0.32700
C1637       C  0.65917781  0.99532221  0.43285883     0.36400
H1638       H  0.59716839  0.92078107  0.99714437     0.16700
O1639       O  0.53558586  0.91981804  0.46084215    -0.60200
H1640       H  0.63828957  0.51786626  0.38635371     0.16800
O1641       O  0.69957712  0.52266289  0.42474819    -0.60300
H1642       H  0.70483145  0.51453352  0.39888784     0.43800
H1643       H  0.52885193  0.93489612  0.48027297     0.43700
C1644       C  0.83808260  0.97350175  0.23256965    -0.05400
C1645       C  0.81632205  0.93871469  0.20861467    -0.32800
C1646       C  0.78707529  0.93612914  0.18169004     0.36500
C1647       C  0.77865908  0.96823967  0.17895571    -0.05700
C1648       C  0.80162261  0.00368236  0.20140788    -0.32700
C1649       C  0.83141366  0.00678048  0.22761330     0.36400
H1650       H  0.82131825  0.91302823  0.21128771     0.16700
O1651       O  0.76506309  0.90111221  0.16010889    -0.60200
H1652       H  0.79558627  0.02876813  0.19932707     0.16800
O1653       O  0.85185943  0.04150589  0.24992031    -0.60300
H1654       H  0.87560467  0.06094942  0.23387817     0.43800
H1655       H  0.78312654  0.90385579  0.13800524     0.43700
C1656       C  0.65128921  0.97520722  0.17666858    -0.05400
C1657       C  0.66257102  0.99750128  0.21168222    -0.32800
C1658       C  0.63347572  0.99873240  0.23554398     0.36500
C1659       C  0.59210812  0.97947609  0.22376310    -0.05700
C1660       C  0.58079740  0.95887874  0.18784731    -0.32700
C1661       C  0.60986851  0.95609624  0.16457299     0.36400
H1662       H  0.69418702  0.01348410  0.22129286     0.16700
O1663       O  0.64601014  0.01895925  0.27052285    -0.60200
H1664       H  0.54899506  0.94302793  0.17877267     0.16800
O1665       O  0.59687534  0.93210721  0.13173603    -0.60300
H1666       H  0.59025684  0.94758317  0.11254957     0.43800
H1667       H  0.64703820  0.99912964  0.28880407     0.43700
C1668       C  0.81253719  0.81073744  0.46418312    -0.05400
C1669       C  0.82195279  0.79910158  0.42865843    -0.32800
C1670       C  0.85359335  0.82754415  0.40515095     0.36500
C1671       C  0.87798904  0.86857353  0.41761124    -0.05700
C1672       C  0.86979157  0.88017333  0.45378895    -0.32700
C1673       C  0.83681167  0.85182320  0.47667713     0.36400
H1674       H  0.80439939  0.76768458  0.41862944     0.16700
O1675       O  0.85988467  0.81506344  0.36952864    -0.60200
H1676       H  0.88759348  0.91173222  0.46338569     0.16800
O1677       O  0.82751711  0.86508396  0.51021163    -0.60300
H1678       H  0.80819338  0.87416911  0.00203548     0.43800
H1679       H  0.86904455  0.79519765  0.37519092     0.43700
C1680       C  0.62562802  0.62530217  0.40879528    -0.05400
C1681       C  0.62799086  0.66374320  0.40930271    -0.32800
C1682       C  0.65280967  0.69394208  0.43619614     0.36500
C1683       C  0.67538996  0.68595830  0.46374788    -0.05700
C1684       C  0.67123554  0.64693644  0.46509967    -0.32700
C1685       C  0.64685711  0.61679210  0.43773371     0.36400
H1686       H  0.61168651  0.67120697  0.38786534     0.16700
O1687       O  0.65508004  0.73133555  0.43527088    -0.60200
H1688       H  0.68863961  0.64049360  0.48618969     0.16800
O1689       O  0.64408241  0.57928989  0.43963581    -0.60300
H1690       H  0.67052634  0.58383790  0.42934624     0.43800
H1691       H  0.67198890  0.74566620  0.41213973     0.43700
C1692       C  0.81588618  0.80862393  0.17588166    -0.05400
C1693       C  0.80672701  0.81714888  0.21300125    -0.32800
C1694       C  0.83705027  0.84689053  0.23669690     0.36500
C1695       C  0.87767562  0.87035288  0.22294289    -0.05700
C1696       C  0.88677458  0.86345859  0.18506540    -0.32700
C1697       C  0.85641345  0.83231557  0.16180257     0.36400
H1698       H  0.77579836  0.80016839  0.22425020     0.16700
O1699       O  0.82679956  0.85181896  0.27388585    -0.60200
H1700       H  0.91784047  0.88084159  0.17420852     0.16800
O1701       O  0.86714741  0.82429729  0.12615011    -0.60300
H1702       H  0.87376310  0.80241121  0.13107088     0.43800
H1703       H  0.80676193  0.86122280  0.27089694     0.43700
C1704       C  0.63174310  0.61794017  0.23201346    -0.05400
C1705       C  0.67145020  0.62348204  0.23144687    -0.32800
C1706       C  0.70075221  0.64999434  0.20464622     0.37500
C1707       C  0.69055111  0.67106619  0.17715115    -0.05700
C1708       C  0.65022278  0.66350138  0.17579628    -0.32700
C1709       C  0.62093068  0.63720278  0.20286607     0.36400
H1710       H  0.68053497  0.60846131  0.25285054     0.16700
O1711       O  0.73943371  0.65534261  0.20557041    -0.60200
H1712       H  0.64189061  0.67952587  0.15481033     0.16800
O1713       O  0.58217218  0.63130879  0.20092303    -0.60300
H1714       H  0.56686868  0.60746204  0.18335218     0.43800
H1715       H  0.75222868  0.67088534  0.22983476     0.43700
C1716       C  0.72274976  0.70519695  0.65389651     0.03200
C1717       C  0.75550676  0.73761105  0.67340851    -0.12900
C1718       C  0.78304724  0.77358854  0.65369045     0.00700
C1719       C  0.77765902  0.77653830  0.61364069    -0.11400
C1720       C  0.74713620  0.74294173  0.59227273     0.03200
C1721       C  0.71927002  0.70737962  0.61333536    -0.10900
H1722       H  0.75856457  0.73530948  0.70457625     0.08800
H1723       H  0.79686422  0.80576709  0.59978019     0.06400
H1724       H  0.69481089  0.68090927  0.59900902     0.06200
C1725       C  0.70822254  0.71955532  0.98669574     0.03200
C1726       C  0.74088169  0.75161098  0.96685616    -0.12900
C1727       C  0.77653252  0.77970091  0.98667007     0.00700
C1728       C  0.77857186  0.77579281  0.52718662    -0.11400
C1729       C  0.74467634  0.74562831  0.54858662     0.03200
C1730       C  0.70951005  0.71734106  0.52741976    -0.10900
H1731       H  0.73920211  0.75336681  0.93542470     0.08800
H1732       H  0.80756695  0.79543018  0.54128718     0.06400
H1733       H  0.68290266  0.69310585  0.54171895     0.06200
C1734       C  0.74393068  0.96458823  0.65574283     0.03200
C1735       C  0.74384656  0.96343491  0.61487682    -0.12900
C1736       C  0.71445521  0.96784721  0.59289636     0.00700
C1737       C  0.68521300  0.97320300  0.61387570    -0.11400
C1738       C  0.68292426  0.97077094  0.65473741     0.03200
C1739       C  0.71250738  0.96629090  0.67524215    -0.10900
H1740       H  0.76754242  0.96006706  0.60109064     0.08800
H1741       H  0.66476191  0.98079449  0.59915550     0.06400
H1742       H  0.71191879  0.96509004  0.70682285     0.06200
C1743       C  0.74686348  0.96845790  0.98646647     0.03200
C1744       C  0.71295353  0.96455916  0.96634522    -0.12900
C1745       C  0.68061256  0.96440431  0.98623480     0.00700
C1746       C  0.68059539  0.96378825  0.52717177    -0.11400
C1747       C  0.71447108  0.96756866  0.54870869     0.03200
C1748       C  0.74812284  0.97104893  0.52726956    -0.10900
H1749       H  0.71224216  0.96246217  0.93481381     0.08800
H1750       H  0.65400416  0.96098062  0.54147269     0.06400
H1751       H  0.77554624  0.97551249  0.54145461     0.06200
C1752       C  0.98013364  0.73881521  0.65452930     0.03200
C1753       C  0.98333695  0.74017834  0.61383178    -0.12900
C1754       C  0.98355196  0.70805903  0.59263086     0.00700
C1755       C  0.98233843  0.67557982  0.61466222    -0.11400
C1756       C  0.97995037  0.67444644  0.65558528     0.03200
C1757       C  0.97714701  0.70551993  0.67495476    -0.10900
H1758       H  0.98617637  0.76698452  0.59981286     0.08800
H1759       H  0.98409247  0.65101413  0.60096701     0.06400
H1760       H  0.97335480  0.70444766  0.70629260     0.06200
C1761       C  0.98735452  0.74069301  0.98536038     0.03200
C1762       C  0.98484688  0.74001667  0.52615051    -0.12900
C1763       C  0.98568133  0.70866943  0.54833646     0.00700
C1764       C  0.98868278  0.67790917  0.52730257    -0.11400
C1765       C  0.98970074  0.67770077  0.98638322     0.03200
C1766       C  0.98828449  0.70890666  0.96584026    -0.10900
H1767       H  0.98271202  0.76460401  0.53950902     0.08800
H1768       H  0.99087745  0.65384048  0.54171664     0.06400
H1769       H  0.98758694  0.70853971  0.93426562     0.06200
O1770       O  0.89203302  0.50765241  0.77870144    -0.88100
C1771       C  0.60122147  0.59557416  0.87755518     1.12000
O1772       O  0.94165535  0.97412809  0.82040697    -1.35900
O1773       O  0.57280497  0.59704937  0.77240555    -0.89600
O1774       O  0.86033519  0.93951458  0.77563433    -0.90200
O1775       O  0.94221702  0.93106482  0.73761611    -0.79000
O1776       O  0.98254740  0.55266444  0.78380914    -1.01100
C1777       C  0.56078446  0.97797143  0.75055151     1.22000
O1778       O  0.98483938  0.93234624  0.82076980    -1.36000
Mn1779     Mn  0.98381342  0.97426874  0.86330299     1.82100
O1780       O  0.52814134  0.97553244  0.73883559    -0.78100
O1781       O  0.61102051  0.56821624  0.78170370    -0.87500
C1782       C  0.55728167  0.97329094  0.89317802     1.13100
C1783       C  0.60312188  0.59275328  0.76366657     1.07800
O1784       O  0.94036004  0.93149696  0.90302506    -0.79100
O1785       O  0.52665090  0.51738545  0.82094011    -1.32700
O1786       O  0.90485246  0.89423121  0.85633252    -0.98300
C1787       C  0.98618518  0.85827705  0.76273904     1.06500
Mn1788     Mn  0.58485567  0.52221560  0.82368742     1.48600
O1789       O  0.95195185  0.85060103  0.77689706    -0.87500
Mn1790     Mn  0.88430588  0.91940464  0.81982411     1.49600
O1791       O  0.89399067  0.50746608  0.86640756    -0.91300
C1792       C  0.98207866  0.54735518  0.74888082     1.19700
C1793       C  0.86555855  0.97253492  0.87802736     1.11800
Mn1794     Mn  0.98447892  0.97444831  0.77797397     1.81000
O1795       O  0.56371419  0.97493630  0.85836162    -0.96500
Mn1796     Mn  0.93782866  0.52819717  0.82139792     1.49300
C1797       C  0.86541544  0.97366019  0.76393555     1.08300
Mn1798     Mn  0.53981416  0.93027508  0.82054503     1.49900
C1799       C  0.98607762  0.85690148  0.87711529     1.11200
O1800       O  0.90570502  0.89481603  0.78417278    -1.02300
O1801       O  0.60660257  0.56578858  0.86926979    -0.92000
C1802       C  0.91025128  0.89991764  0.74924441     1.22500
O1803       O  0.56583140  0.97757772  0.78560163    -1.02700
O1804       O  0.57582755  0.60206768  0.85947284    -0.90100
O1805       O  0.51982259  0.88446140  0.86284259    -0.89700
O1806       O  0.85932779  0.93913132  0.86299450    -0.89700
Mn1807     Mn  0.52974744  0.57485518  0.81820825     1.47900
O1808       O  0.52547454  0.97288921  0.90408016    -0.78200
C1809       C  0.90938361  0.89939150  0.89128902     1.15600
O1810       O  0.98291562  0.51628556  0.73746173    -0.76900
O1811       O  0.98394422  0.51710363  0.90270002    -0.76500
Mn1812     Mn  0.93098427  0.87422854  0.82056589     1.51100
O1813       O  0.52029455  0.88692618  0.77558702    -0.88900
O1814       O  0.98524651  0.55530513  0.85658863    -0.96400
O1815       O  0.95150982  0.85034174  0.86483239    -0.91400
C1816       C  0.98610422  0.54976677  0.89153754     1.13300
C1817       C  0.99190132  0.64476299  0.96465453    -0.05400
C1818       C  0.96713913  0.60335580  0.97560321    -0.32800
C1819       C  0.96642667  0.57185403  0.95330806     0.36500
C1820       C  0.98962632  0.58150019  0.91888414    -0.05700
C1821       C  0.01493166  0.62273641  0.90856666    -0.32700
C1822       C  0.01709688  0.65419766  0.93151797     0.36400
H1823       H  0.94738106  0.59529741  0.50081056     0.16700
O1824       O  0.94072308  0.53180997  0.96379051    -0.60200
H1825       H  0.53298553  0.63085564  0.88221188     0.16800
O1826       O  0.54480070  0.69413128  0.92194378    -0.60300
H1827       H  0.53592108  0.69896730  0.89621066     0.43800
H1828       H  0.95683661  0.52518859  0.98217446     0.43700
C1829       C  0.98930372  0.77461123  0.96214199    -0.05400
C1830       C  0.95568469  0.78058201  0.96095322    -0.32800
C1831       C  0.95471210  0.80839245  0.93450169     0.36500
C1832       C  0.98759918  0.83053045  0.90849457    -0.05700
C1833       C  0.02236846  0.82634716  0.91175674    -0.32700
C1834       C  0.02324786  0.79850377  0.93806552     0.36400
H1835       H  0.92946227  0.76254594  0.47959063     0.16700
O1836       O  0.92128747  0.81331512  0.93417876    -0.60200
H1837       H  0.04849252  0.84356572  0.89284712     0.16800
O1838       O  0.05738030  0.79464351  0.94003914    -0.60300
H1839       H  0.05574527  0.77818997  0.91689220     0.43800
H1840       H  0.92782521  0.83555704  0.95317257     0.43700
C1841       C  0.98175101  0.64158012  0.67831589    -0.05400
C1842       C  0.96132412  0.60061649  0.66501598    -0.32800
C1843       C  0.96237993  0.56949568  0.68662026     0.36500
C1844       C  0.98314196  0.57887535  0.72254492    -0.05700
C1845       C  0.50388317  0.61967340  0.73547107    -0.32700
C1846       C  0.50423192  0.65090976  0.71346706     0.36400
H1847       H  0.94380659  0.59244090  0.63818066     0.16700
O1848       O  0.94213021  0.53002819  0.67291803    -0.60200
H1849       H  0.52078690  0.62770333  0.76270546     0.16800
O1850       O  0.52851928  0.69074466  0.72557686    -0.60300
H1851       H  0.51651272  0.69296900  0.75049113     0.43800
H1852       H  0.91383991  0.51788645  0.68302296     0.43700
C1853       C  0.98605722  0.83161450  0.73068551    -0.05400
C1854       C  0.94878575  0.80344637  0.71256645    -0.32800
C1855       C  0.94680473  0.77431454  0.68605826     0.36500
C1856       C  0.98237782  0.77326923  0.67681760    -0.05700
C1857       C  0.01990623  0.80250386  0.69306309    -0.32700
C1858       C  0.02210091  0.83170709  0.71955726     0.36400
H1859       H  0.92072635  0.80298773  0.71990758     0.16700
O1860       O  0.90976156  0.74611625  0.67031200    -0.60200
H1861       H  0.04742827  0.80164446  0.68631501     0.16800
O1862       O  0.05922564  0.85827360  0.73623613    -0.60300
H1863       H  0.07347854  0.88067347  0.71696583     0.43800
H1864       H  0.89809185  0.72274286  0.68879942     0.43700
C1865       C  0.78035049  0.96890685  0.96388188    -0.05400
C1866       C  0.77285025  0.93300062  0.94497967    -0.32800
C1867       C  0.80103564  0.93328990  0.91848802     0.36500
C1868       C  0.83748449  0.97041345  0.90967313    -0.05700
C1869       C  0.84561723  0.00613437  0.93004204    -0.32700
C1870       C  0.81749479  0.00545595  0.95713651     0.36400
H1871       H  0.74423225  0.90471953  0.94986785     0.16700
O1872       O  0.79115616  0.89748288  0.89961060    -0.60200
H1873       H  0.87331942  0.03497924  0.92424657     0.16800
O1874       O  0.82525299  0.04110795  0.47489189    -0.60300
H1875       H  0.84192739  0.04354385  0.49818474     0.43800
H1876       H  0.79754221  0.88154713  0.91843844     0.43700
C1877       C  0.64822732  0.96731908  0.96395851    -0.05400
C1878       C  0.60642349  0.94274359  0.97353726    -0.32800
C1879       C  0.57611250  0.94551313  0.95206647     0.36500
C1880       C  0.58742341  0.97251908  0.92013994    -0.05700
C1881       C  0.62898513  0.99695135  0.91084789    -0.32700
C1882       C  0.65920856  0.99535320  0.93283627     0.36400
H1883       H  0.59712598  0.92076325  0.49717176     0.16700
O1884       O  0.53561881  0.91980862  0.96080561    -0.60200
H1885       H  0.63826520  0.51783475  0.88633193     0.16800
O1886       O  0.69956852  0.52268598  0.92474395    -0.60300
H1887       H  0.70482634  0.51455799  0.89888474     0.43800
H1888       H  0.52887029  0.93487287  0.98023915     0.43700
C1889       C  0.83812589  0.97352397  0.73254757    -0.05400
C1890       C  0.81636870  0.93873176  0.70859767    -0.32800
C1891       C  0.78711251  0.93613252  0.68167700     0.36500
C1892       C  0.77868123  0.96823310  0.67894360    -0.05700
C1893       C  0.80164623  0.00368357  0.70138577    -0.32700
C1894       C  0.83144869  0.00679639  0.72758497     0.36400
H1895       H  0.82137269  0.91305050  0.71127413     0.16700
O1896       O  0.76510541  0.90111115  0.66010045    -0.60200
H1897       H  0.79560169  0.02876374  0.69930291     0.16800
O1898       O  0.85189465  0.04152819  0.74988328    -0.60300
H1899       H  0.87563474  0.06097082  0.73383404     0.43800
H1900       H  0.78316625  0.90385794  0.63799519     0.43700
C1901       C  0.65129880  0.97518847  0.67667321    -0.05400
C1902       C  0.66258226  0.99748518  0.71168506    -0.32800
C1903       C  0.63348994  0.99872988  0.73554042     0.36500
C1904       C  0.59212388  0.97948330  0.72375570    -0.05700
C1905       C  0.58081171  0.95888289  0.68784165    -0.32700
C1906       C  0.60987933  0.95608767  0.66457324     0.36400
H1907       H  0.69419721  0.01346220  0.72129853     0.16700
O1908       O  0.64602583  0.01896101  0.77051706    -0.60200
H1909       H  0.54901029  0.94303902  0.67876415     0.16800
O1910       O  0.59688263  0.93209587  0.63173801    -0.60300
H1911       H  0.59026586  0.94757180  0.61255013     0.43800
H1912       H  0.64704778  0.99913062  0.78880284     0.43700
C1913       C  0.81256854  0.81074674  0.96417542    -0.05400
C1914       C  0.82199055  0.79912058  0.92864894    -0.32800
C1915       C  0.85363053  0.82757038  0.90514620     0.36500
C1916       C  0.87802037  0.86859857  0.91761240    -0.05700
C1917       C  0.86981796  0.88018903  0.95379271    -0.32700
C1918       C  0.83683813  0.85183098  0.97667680     0.36400
H1919       H  0.80444258  0.76770523  0.91861441     0.16700
O1920       O  0.85992615  0.81509713  0.86952197    -0.60200
H1921       H  0.88761611  0.91174622  0.96339505     0.16800
O1922       O  0.82754028  0.86508214  0.01021562    -0.60300
H1923       H  0.80817359  0.87417359  0.50202705     0.43800
H1924       H  0.86910290  0.79524428  0.87518229     0.43700
C1925       C  0.62565658  0.62527937  0.90877654    -0.05400
C1926       C  0.62803941  0.66373008  0.90926445    -0.32800
C1927       C  0.65286150  0.69393365  0.93615281     0.36500
C1928       C  0.67542948  0.68594765  0.96371714    -0.05700
C1929       C  0.67125830  0.64691883  0.96508587    -0.32700
C1930       C  0.64687354  0.61676817  0.93772647     0.36400
H1931       H  0.61174487  0.67119592  0.88781771     0.16700
O1932       O  0.65514223  0.73133174  0.93521418    -0.60200
H1933       H  0.68865098  0.64047291  0.98618677     0.16800
O1934       O  0.64407643  0.57925706  0.93964912    -0.60300
H1935       H  0.67052384  0.58379032  0.92938419     0.43800
H1936       H  0.67204017  0.74564708  0.91207282     0.43700
C1937       C  0.81588987  0.80863005  0.67589545    -0.05400
C1938       C  0.80673775  0.81715406  0.71301865    -0.32800
C1939       C  0.83706454  0.84689767  0.73671052     0.36500
C1940       C  0.87768735  0.87036319  0.72295034    -0.05700
C1941       C  0.88677991  0.86346744  0.68507046    -0.32700
C1942       C  0.85641490  0.83232317  0.66181059     0.36400
H1943       H  0.77581130  0.80017284  0.72427273     0.16700
O1944       O  0.82681879  0.85182727  0.77390103    -0.60200
H1945       H  0.91784356  0.88085205  0.67420834     0.16800
O1946       O  0.86714288  0.82430662  0.62615425    -0.60300
H1947       H  0.87374977  0.80241400  0.63106799     0.43800
H1948       H  0.80679099  0.86124394  0.77091452     0.43700
C1949       C  0.63174015  0.61791339  0.73201705    -0.05400
C1950       C  0.67145415  0.62347371  0.73145918    -0.32800
C1951       C  0.70075785  0.64999994  0.70466617     0.37500
C1952       C  0.69055158  0.67106774  0.67717045    -0.05700
C1953       C  0.65021741  0.66348562  0.67580798    -0.32700
C1954       C  0.62092396  0.63717330  0.70286976     0.36400
H1955       H  0.68054167  0.60845640  0.75286412     0.16700
O1956       O  0.73944501  0.65536298  0.70559648    -0.60200
H1957       H  0.64188011  0.67950541  0.65482135     0.16800
O1958       O  0.58215913  0.63126184  0.70091856    -0.60300
H1959       H  0.56687554  0.60743452  0.68332269     0.43800
H1960       H  0.75222894  0.67089812  0.72986632     0.43700
loop_ 
_geom_bond_atom_site_label_1 
_geom_bond_atom_site_label_2 
_geom_bond_distance 
_geom_bond_site_symmetry_2 
_ccdc_geom_bond_type 
C1            C2   1.396       .  A
C1            C6   1.403       .  A
C1          C237   1.483       .  S
C2            C3   1.401       .  A
C2            H7   1.083       .  S
C3            C4   1.400       .  A
C3          C222   1.488       .  S
C4            C5   1.414       .  A
C4            H8   1.079       .  S
C5            C6   1.418       .  A
C5           C14   1.507       .  S
C6            H9   1.078       .  S
C10          C11   1.396       .  A
C10         C260   1.400       .  A
C10         C213   1.477       .  S
C11          C12   1.400       .  A
C11          H16   1.083       .  S
C12         C258   1.403       .  A
C12         C198   1.489       .  S
C13          C14   1.418       .  A
C13         C257   1.403   1_554  A
C13          H17   1.079       .  S
C14          C15   1.415       .  A
C15         C255   1.400   1_554  A
C15          H18   1.079       .  S
C19          C20   1.402       .  A
C19          C24   1.395       .  A
C19         C177   1.481       .  S
C20          C21   1.419       .  A
C20          H25   1.078       .  S
C21          C22   1.419       .  A
C21          C32   1.515       .  S
C22          C23   1.404       .  A
C22          H26   1.076       .  S
C23          C24   1.401       .  A
C23         C186   1.494       .  S
C24          H27   1.084       .  S
C28          C29   1.396       .  A
C28         C278   1.402       .  A
C28         C150   1.480       .  S
C29          C30   1.400       .  A
C29          H34   1.084       .  S
C30         C276   1.404       .  A
C30         C162   1.493       .  S
C31          C32   1.421       .  A
C31         C275   1.404   1_554  A
C31          H35   1.077       .  S
C32          C33   1.420       .  A
C33         C273   1.402   1_554  A
C33          H36   1.078       .  S
C37          C38   1.400       .  A
C37          C42   1.393       .  A
C37         C141   1.476       .  S
C38          C39   1.420       .  A
C38          H43   1.076       .  S
C39          C40   1.421       .  A
C39          C48   1.521       .  S
C40          C41   1.406       .  A
C40          H44   1.073       .  S
C41          C42   1.401       .  A
C41         C126   1.496       .  S
C42          H45   1.083       .  S
C46          C51   1.393       .  A
C46         C292   1.401       .  A
C46         C114   1.478       .  S
C47          C48   1.421       .  A
C47         C291   1.401   1_554  A
C47          H52   1.076       .  S
C48          C49   1.422       .  A
C49         C295   1.404   1_554  A
C49          H53   1.074       .  S
C50          C51   1.397       .  A
C50         C294   1.404       .  A
C50         C102   1.490       .  S
C51          H54   1.083       .  S
O55         Mn81   2.093       .  S
O55         C572   1.271   1_545  A
C56         C210   1.487       .  S
C56          O89   1.266       .  A
C56          O86   1.274       .  A
O57         Mn64   2.165       .  S
O57         Mn75   2.111       .  S
O57         Mn79   2.177       .  S
O57        Mn571   2.121       .  S
O58         Mn92   2.111       .  S
O58          C68   1.274       .  A
O59         Mn75   2.093       .  S
O59          C82   1.270       .  A
O60         Mn79   2.123       .  S
O60          C87   1.254       .  A
O61         Mn81   1.952       .  S
O61       Mn1072   1.940       .  S
O61          C77   1.213       .  S
C62         C189   1.480       .  S
C62          O65   1.256       .  A
C62          O88   1.218       .  S
O63         Mn64   2.171       .  S
O63         Mn97   2.111       .  S
O63         Mn79   2.168       .  S
O63       Mn1063   2.121       .  S
Mn64         O69   2.120       .  S
Mn64       O1073   2.124       .  S
Mn64        O586   2.109       .  S
Mn64       O1540   2.176       .  S
O65       Mn1059   2.116   1_455  S
O66         Mn73   2.083       .  S
O66          C68   1.269       .  A
C67         C165   1.478       .  S
C67          O93   1.254       .  A
C67          O80   1.214       .  S
C68         C234   1.489       .  S
O69          C94   1.253       .  A
O70         Mn73   2.118       .  S
O70         Mn92   2.118       .  S
O70       Mn1534   2.176   1_445  S
O70       Mn1549   2.175   1_445  S
O71         Mn75   1.953       .  S
O71         Mn97   1.955       .  S
O71          C94   1.213       .  S
C72         C138   1.491       .  S
C72          O74   1.273       .  A
C72        O1078   1.272       .  A
Mn73         O86   2.113       .  S
Mn73        O578   1.962   1_545  S
Mn73        O570   1.951   1_545  S
O74         Mn97   2.097       .  S
Mn75         O91   2.089       .  S
Mn75         O85   1.945       .  S
O76         Mn81   2.109       .  S
O76         C568   1.276   1_545  A
C77         C129   1.478       .  S
C77          O95   1.254       .  A
C78         C153   1.494       .  S
C78          O91   1.272       .  A
C78         O566   1.276       .  A
Mn79       O1045   2.116       .  S
Mn79        O585   2.127       .  S
Mn79       O1540   2.176       .  S
O80         Mn83   1.952       .  S
O80        Mn563   1.951       .  S
Mn81        O547   2.121   1_545  S
Mn81         O99   1.965       .  S
C82         C174   1.488       .  S
C82         O545   1.271       .  A
Mn83         O90   2.086       .  S
Mn83         O98   2.095       .  S
Mn83       O1043   2.121   1_455  S
Mn83         O88   1.956       .  S
C84         C117   1.486       .  S
C84         O100   1.273       .  A
C84        O1070   1.270       .  A
O85         Mn97   1.954       .  S
O85          C87   1.212       .  S
C87         C225   1.479       .  S
O88        Mn563   1.962       .  S
O89         Mn92   2.069       .  S
O90        C1064   1.270   1_455  A
Mn92       O1041   1.940   1_455  S
Mn92       O1079   1.966   1_455  S
O93       Mn1044   2.124   1_455  S
C94         C201   1.478       .  S
O95        Mn569   2.127   1_545  S
O96        Mn554   2.109   1_545  S
O96         C101   1.255       .  A
Mn97        O100   2.102       .  S
O98        C1052   1.272   1_455  A
O99       Mn1072   1.966       .  S
O99         C101   1.219       .  S
C101        C105   1.476       .  S
C102        C103   1.410       .  A
C102        C107   1.410       .  A
C103        C104   1.405       .  A
C103        H353   1.083       .  S
C104        C105   1.407       .  A
C104        O109   1.371       .  S
C105        C106   1.402       .  A
C106        C107   1.395       .  A
C106       H1090   1.081       .  S
C107       O1091   1.374       .  S
H108        C348   1.083   1_554  S
O109        H113   0.992       .  S
H110       C1086   1.081       .  S
O111       C1087   1.374       .  S
O111        H112   0.992       .  S
C114        C115   1.400       .  A
C114        C119   1.407       .  A
C115        C116   1.402       .  A
C115        H365   1.084       .  S
C116        C117   1.413       .  A
C116        O121   1.368       .  S
C117        C118   1.406       .  A
C118        C119   1.398       .  A
C118        H122   1.083       .  S
C119        O123   1.373       .  S
H120        C360   1.084       .  S
O121        H125   0.992       .  S
O123        H124   0.992       .  S
C126        C127   1.413       .  A
C126       C1111   1.412       .  A
C127        C128   1.407       .  A
C127        H132   1.083       .  S
C128        C129   1.405       .  A
C128        O133   1.371       .  S
C129       C1110   1.403       .  A
C130        C131   1.395       .  A
C130       C1109   1.403   1_455  A
C130        H134   1.084       .  S
C131       C1106   1.412   1_455  A
C131        O135   1.374       .  S
O133        H137   0.991       .  S
O135        H136   0.992       .  S
C138        C139   1.410       .  A
C138        C143   1.416       .  A
C139        C140   1.402       .  A
C139        H144   1.084       .  S
C140        C141   1.404       .  A
C140        O145   1.372       .  S
C141        C142   1.400       .  A
C142        C143   1.401       .  A
C142        H146   1.084       .  S
C143        O147   1.372       .  S
O145        H149   0.992       .  S
O147        H148   0.992       .  S
C150        C151   1.399       .  A
C150        C155   1.406       .  A
C151        C152   1.399       .  A
C151        H156   1.084       .  S
C152        C153   1.418       .  A
C152        O157   1.372       .  S
C153        C154   1.410       .  A
C154        C155   1.405       .  A
C154        H158   1.083       .  S
C155        O404   1.371       .  S
O157        H161   0.991       .  S
O159        C400   1.371       .  S
O159        H160   0.992       .  S
C162        C163   1.411       .  A
C162        C167   1.410       .  A
C163        C164   1.409       .  A
C163        H413   1.083       .  S
C164        C165   1.408       .  A
C164        O169   1.371       .  S
C165        C166   1.401       .  A
C166        C167   1.394       .  A
C166        H660   1.084       .  S
C167        O661   1.374       .  S
H168        C408   1.083       .  S
O169        H173   0.991       .  S
H170        C656   1.084   1_545  S
O171        C657   1.374   1_545  S
O171        H172   0.992       .  S
C174        C175   1.410       .  A
C174        C179   1.413       .  A
C175        C176   1.404       .  A
C175        H180   1.083       .  S
C176        C177   1.405       .  A
C176        O181   1.371       .  S
C177        C178   1.402       .  A
C178        C179   1.397       .  A
C178        H182   1.084       .  S
C179        O183   1.372       .  S
O181        H185   0.992       .  S
O183        H184   0.992       .  S
C186        C187   1.404       .  A
C186        C191   1.416       .  A
C187        C188   1.393       .  A
C187        H192   1.083       .  S
C188        C189   1.411       .  A
C188        O193   1.372       .  S
C189        C190   1.404       .  A
C190        C191   1.407       .  A
C190        H194   1.084       .  S
C191        O195   1.372       .  S
O193        H197   0.992       .  S
O195        H196   0.992       .  S
C198        C199   1.403       .  A
C198        C203   1.414       .  A
C199        C200   1.394       .  A
C199        H204   1.083       .  S
C200        C201   1.412       .  A
C200        O205   1.374       .  S
C201        C202   1.403       .  A
C202        C203   1.405       .  A
C202        H206   1.083       .  S
C203        O207   1.371       .  S
O205        H209   0.992       .  S
O207        H453   0.993       .  S
H208        O452   0.993       .  S
C210        C211   1.410       .  A
C210        C215   1.410       .  A
C211        C212   1.397       .  A
C211        H216   1.083       .  S
C212        C213   1.403       .  A
C212        O217   1.373       .  S
C213        C214   1.403       .  A
C214        C215   1.403       .  A
C214        H218   1.084       .  S
C215        O219   1.369       .  S
O217        H221   0.992       .  S
O219        H220   0.992       .  S
C222        C223   1.400       .  A
C222        C227   1.415       .  A
C223        C224   1.391       .  A
C223        H228   1.083       .  S
C224        C225   1.414       .  A
C224        O229   1.374       .  S
C225        C226   1.403       .  A
C226        C227   1.405       .  A
C226        H230   1.083       .  S
C227        O231   1.371       .  S
O229        H233   0.992       .  S
O231        H232   0.992       .  S
C234        C235   1.409       .  A
C234        C239   1.412       .  A
C235        C236   1.400       .  A
C235        H240   1.083       .  S
C236        C237   1.407       .  A
C236        O241   1.373       .  S
C237        C238   1.404       .  A
C238        C239   1.403       .  A
C238        H242   1.084       .  S
C239        O243   1.369       .  S
O241        H245   0.992       .  S
O243        H244   0.992       .  S
C246        C247   1.396       .  A
C246        C251   1.403       .  A
C246        C482   1.483       .  S
C247        C248   1.401       .  A
C247        H252   1.083       .  S
C248        C249   1.400       .  A
C248        C467   1.488       .  S
C249        C250   1.414       .  A
C249        H253   1.079       .  S
C250        C251   1.418       .  A
C250        C259   1.507       .  S
C251        H254   1.078       .  S
C255        C256   1.396       .  A
C255        C458   1.477       .  S
C256        C257   1.400       .  A
C256        H261   1.083       .  S
C257        C443   1.490       .  S
C258        C259   1.418       .  A
C258        H262   1.079       .  S
C259        C260   1.415       .  A
C260        H263   1.079       .  S
C264        C265   1.402       .  A
C264        C269   1.395       .  A
C264        C422   1.481       .  S
C265        C266   1.419       .  A
C265        H270   1.078       .  S
C266        C267   1.419       .  A
C266        C277   1.515       .  S
C267        C268   1.404       .  A
C267        H271   1.076       .  S
C268        C269   1.401       .  A
C268        C431   1.495       .  S
C269        H272   1.084       .  S
C273        C274   1.396       .  A
C273        C395   1.480       .  S
C274        C275   1.400       .  A
C274        H279   1.084       .  S
C275        C407   1.493       .  S
C276        C277   1.421       .  A
C276        H280   1.077       .  S
C277        C278   1.420       .  A
C278        H281   1.078       .  S
C282        C283   1.400       .  A
C282        C287   1.393       .  A
C282        C386   1.476       .  S
C283        C284   1.420       .  A
C283        H288   1.076       .  S
C284        C285   1.422       .  A
C284        C293   1.521       .  S
C285        C286   1.406       .  A
C285        H289   1.073       .  S
C286        C287   1.401       .  A
C286        C371   1.496       .  S
C287        H290   1.083       .  S
C291        C296   1.393       .  A
C291        C359   1.478       .  S
C292        C293   1.421       .  A
C292        H297   1.076       .  S
C293        C294   1.422       .  A
C294        H298   1.074       .  S
C295        C296   1.397       .  A
C295        C347   1.490       .  S
C296        H299   1.083       .  S
O300       Mn326   2.093       .  S
O300        C817   1.271   1_545  A
C301        C455   1.487       .  S
C301        O334   1.266       .  A
C301        O331   1.274       .  A
O302       Mn309   2.165       .  S
O302       Mn320   2.111       .  S
O302       Mn324   2.177       .  S
O302       Mn816   2.121       .  S
O303       Mn337   2.111       .  S
O303        C313   1.274       .  A
O304       Mn320   2.093       .  S
O304        C327   1.270       .  A
O305       Mn324   2.123       .  S
O305        C332   1.254       .  A
O306      Mn1317   1.940       .  S
O306       Mn326   1.952       .  S
O306        C322   1.213       .  S
C307        C434   1.481       .  S
C307        O310   1.256       .  A
C307        O333   1.218       .  S
O308      Mn1308   2.121       .  S
O308       Mn309   2.171       .  S
O308       Mn342   2.111       .  S
O308       Mn324   2.168       .  S
Mn309      O1318   2.124       .  S
Mn309       O314   2.120       .  S
Mn309       O831   2.109       .  S
Mn309      O1785   2.176       .  S
O310      Mn1304   2.116   1_455  S
O311       Mn318   2.083       .  S
O311        C313   1.269       .  A
C312        C410   1.478       .  S
C312        O338   1.254       .  A
C312        O325   1.214       .  S
C313        C479   1.489       .  S
O314        C339   1.253       .  A
O315      Mn1779   2.176   1_445  S
O315       Mn318   2.118       .  S
O315       Mn337   2.118       .  S
O315      Mn1794   2.175   1_445  S
O316       Mn320   1.953       .  S
O316       Mn342   1.954       .  S
O316        C339   1.213       .  S
C317        C383   1.491       .  S
C317       O1323   1.273       .  A
C317        O319   1.273       .  A
Mn318       O331   2.113       .  S
Mn318       O823   1.962   1_545  S
Mn318       O815   1.951   1_545  S
O319       Mn342   2.097       .  S
Mn320       O336   2.089       .  S
Mn320       O330   1.945       .  S
O321       Mn326   2.109       .  S
O321        C813   1.276   1_545  A
C322        C374   1.478       .  S
C322        O340   1.254       .  A
C323        C398   1.494       .  S
C323        O811   1.276       .  A
C323        O336   1.272       .  A
Mn324      O1290   2.116       .  S
Mn324       O830   2.127       .  S
Mn324      O1785   2.175       .  S
O325       Mn808   1.951       .  S
O325       Mn328   1.952       .  S
Mn326       O792   2.121   1_545  S
Mn326       O344   1.965       .  S
C327        C419   1.488       .  S
C327        O790   1.271       .  A
Mn328       O335   2.086       .  S
Mn328       O343   2.095       .  S
Mn328      O1288   2.121   1_455  S
Mn328       O333   1.956       .  S
C329        C362   1.486       .  S
C329       O1315   1.270       .  A
C329        O345   1.272       .  A
O330       Mn342   1.954       .  S
O330        C332   1.212       .  S
C332        C470   1.479       .  S
O333       Mn808   1.962       .  S
O334       Mn337   2.069       .  S
O335       C1309   1.270   1_455  A
Mn337      O1286   1.940   1_455  S
Mn337      O1324   1.966   1_455  S
O338      Mn1289   2.124   1_455  S
C339        C446   1.478       .  S
O340       Mn814   2.127   1_545  S
O341       Mn799   2.109   1_545  S
O341        C346   1.255       .  A
Mn342       O345   2.102       .  S
O343       C1297   1.273   1_455  A
O344      Mn1317   1.966       .  S
O344        C346   1.219       .  S
C346        C350   1.476       .  S
C347        C348   1.410       .  A
C347        C352   1.410       .  A
C348        C349   1.405       .  A
C349        C350   1.407       .  A
C349        O354   1.371       .  S
C350        C351   1.402       .  A
C351        C352   1.395       .  A
C351       H1335   1.081       .  S
C352       O1336   1.374       .  S
O354        H358   0.992       .  S
H355       C1331   1.081       .  S
O356       C1332   1.374       .  S
O356        H357   0.992       .  S
C359        C360   1.400       .  A
C359        C364   1.407       .  A
C360        C361   1.402       .  A
C361        C362   1.413       .  A
C361        O366   1.368       .  S
C362        C363   1.406       .  A
C363        C364   1.398       .  A
C363        H367   1.083       .  S
C364        O368   1.373       .  S
O366        H370   0.992       .  S
O368        H369   0.992       .  S
C371        C372   1.413       .  A
C371       C1356   1.412       .  A
C372        C373   1.407       .  A
C372        H377   1.083       .  S
C373        C374   1.405       .  A
C373        O378   1.371       .  S
C374       C1355   1.403       .  A
C375       C1354   1.403   1_455  A
C375        C376   1.395       .  A
C375        H379   1.084       .  S
C376       C1351   1.412   1_455  A
C376        O380   1.374       .  S
O378        H382   0.991       .  S
O380        H381   0.992       .  S
C383        C384   1.410       .  A
C383        C388   1.416       .  A
C384        C385   1.402       .  A
C384        H389   1.084       .  S
C385        C386   1.404       .  A
C385        O390   1.372       .  S
C386        C387   1.400       .  A
C387        C388   1.401       .  A
C387        H391   1.084       .  S
C388        O392   1.372       .  S
O390        H394   0.992       .  S
O392        H393   0.992       .  S
C395        C396   1.399       .  A
C395        C400   1.406       .  A
C396        C397   1.399       .  A
C396        H401   1.084       .  S
C397        C398   1.418       .  A
C397        O402   1.372       .  S
C398        C399   1.410       .  A
C399        C400   1.405       .  A
C399        H403   1.083       .  S
O402        H406   0.991       .  S
O404        H405   0.992       .  S
C407        C408   1.411       .  A
C407        C412   1.410       .  A
C408        C409   1.409       .  A
C409        C410   1.408       .  A
C409        O414   1.371       .  S
C410        C411   1.401       .  A
C411        C412   1.395       .  A
C411        H905   1.084       .  S
C412        O906   1.374       .  S
O414        H418   0.991       .  S
H415        C901   1.084   1_545  S
O416        C902   1.374   1_545  S
O416        H417   0.992       .  S
C419        C420   1.410       .  A
C419        C424   1.412       .  A
C420        C421   1.404       .  A
C420        H425   1.083       .  S
C421        C422   1.405       .  A
C421        O426   1.371       .  S
C422        C423   1.403       .  A
C423        C424   1.397       .  A
C423        H427   1.084       .  S
C424        O428   1.372       .  S
O426        H430   0.992       .  S
O428        H429   0.992       .  S
C431        C432   1.404       .  A
C431        C436   1.416       .  A
C432        C433   1.393       .  A
C432        H437   1.083       .  S
C433        C434   1.411       .  A
C433        O438   1.372       .  S
C434        C435   1.404       .  A
C435        C436   1.407       .  A
C435        H439   1.084       .  S
C436        O440   1.372       .  S
O438        H442   0.992       .  S
O440        H441   0.992       .  S
C443        C444   1.403       .  A
C443        C448   1.414       .  A
C444        C445   1.394       .  A
C444        H449   1.083       .  S
C445        C446   1.412       .  A
C445        O450   1.374       .  S
C446        C447   1.403       .  A
C447        C448   1.405       .  A
C447        H451   1.083       .  S
C448        O452   1.371   1_556  S
O450        H454   0.992       .  S
C455        C456   1.410       .  A
C455        C460   1.410       .  A
C456        C457   1.397       .  A
C456        H461   1.083       .  S
C457        C458   1.403       .  A
C457        O462   1.373       .  S
C458        C459   1.403       .  A
C459        C460   1.403       .  A
C459        H463   1.084       .  S
C460        O464   1.369       .  S
O462        H466   0.992       .  S
O464        H465   0.992       .  S
C467        C468   1.400       .  A
C467        C472   1.415       .  A
C468        C469   1.391       .  A
C468        H473   1.083       .  S
C469        C470   1.414       .  A
C469        O474   1.374       .  S
C470        C471   1.403       .  A
C471        C472   1.405       .  A
C471        H475   1.083       .  S
C472        O476   1.371       .  S
O474        H478   0.992       .  S
O476        H477   0.992       .  S
C479        C480   1.409       .  A
C479        C484   1.412       .  A
C480        C481   1.400       .  A
C480        H485   1.083       .  S
C481        C482   1.407       .  A
C481        O486   1.373       .  S
C482        C483   1.404       .  A
C483        C484   1.403       .  A
C483        H487   1.084       .  S
C484        O488   1.369       .  S
O486        H490   0.992       .  S
O488        H489   0.992       .  S
C491        C492   1.396       .  A
C491        C496   1.403       .  A
C491        C727   1.483       .  S
C492        C493   1.401       .  A
C492        H497   1.083       .  S
C493        C494   1.400       .  A
C493        C712   1.488       .  S
C494        C495   1.414       .  A
C494        H498   1.079       .  S
C495        C496   1.418       .  A
C495        C504   1.507       .  S
C496        H499   1.078       .  S
C500        C501   1.396       .  A
C500        C750   1.400       .  A
C500        C703   1.477       .  S
C501        C502   1.400       .  A
C501        H506   1.083       .  S
C502        C748   1.403       .  A
C502        C688   1.490       .  S
C503        C747   1.403   1_554  A
C503        C504   1.418       .  A
C503        H507   1.079       .  S
C504        C505   1.415       .  A
C505        C745   1.400   1_554  A
C505        H508   1.079       .  S
C509        C510   1.402       .  A
C509        C514   1.395       .  A
C509        C667   1.481       .  S
C510        C511   1.419       .  A
C510        H515   1.078       .  S
C511        C512   1.419       .  A
C511        C522   1.515       .  S
C512        C513   1.404       .  A
C512        H516   1.076       .  S
C513        C514   1.401       .  A
C513        C676   1.494       .  S
C514        H517   1.084       .  S
C518        C519   1.396       .  A
C518        C768   1.402       .  A
C518        C640   1.480       .  S
C519        C520   1.400       .  A
C519        H524   1.084       .  S
C520        C766   1.404       .  A
C520        C652   1.493       .  S
C521        C765   1.404   1_554  A
C521        C522   1.421       .  A
C521        H525   1.077       .  S
C522        C523   1.420       .  A
C523        C763   1.402   1_554  A
C523        H526   1.078       .  S
C527        C528   1.400       .  A
C527        C532   1.393       .  A
C527        C631   1.476       .  S
C528        C529   1.420       .  A
C528        H533   1.076       .  S
C529        C530   1.422       .  A
C529        C538   1.521       .  S
C530        C531   1.406       .  A
C530        H534   1.073       .  S
C531        C532   1.401       .  A
C531        C616   1.496       .  S
C532        H535   1.083       .  S
C536        C782   1.401       .  A
C536        C541   1.393       .  A
C536        C604   1.478       .  S
C537        C781   1.401   1_554  A
C537        C538   1.421       .  A
C537        H542   1.076       .  S
C538        C539   1.422       .  A
C539        C785   1.404   1_554  A
C539        H543   1.074       .  S
C540        C784   1.404       .  A
C540        C541   1.397       .  A
C540        C592   1.490       .  S
C541        H544   1.083       .  S
O545       Mn571   2.093       .  S
C546        C700   1.487       .  S
C546        O579   1.266       .  A
C546        O576   1.274       .  A
O547       Mn554   2.165       .  S
O547       Mn565   2.111       .  S
O547       Mn569   2.177       .  S
O548       Mn582   2.111       .  S
O548        C558   1.274       .  A
O549       Mn565   2.093       .  S
O549        C572   1.270       .  A
O550       Mn569   2.123       .  S
O550        C577   1.254       .  A
O551      Mn1562   1.940       .  S
O551       Mn571   1.952       .  S
O551        C567   1.213       .  S
C552        C679   1.480       .  S
C552        O555   1.256       .  A
C552        O578   1.218       .  S
O553      Mn1553   2.121       .  S
O553       Mn554   2.171       .  S
O553       Mn587   2.111       .  S
O553       Mn569   2.168       .  S
Mn554      O1563   2.124       .  S
Mn554       O559   2.120       .  S
Mn554      O1050   2.176   1_565  S
O555      Mn1549   2.116   1_455  S
O556       Mn563   2.083       .  S
O556        C558   1.269       .  A
C557        C655   1.478       .  S
C557        O583   1.254       .  A
C557        O570   1.214       .  S
C558        C724   1.489       .  S
O559        C584   1.253       .  A
O560      Mn1044   2.176   1_455  S
O560       Mn563   2.118       .  S
O560       Mn582   2.118       .  S
O560      Mn1059   2.176   1_455  S
O561       Mn565   1.953       .  S
O561       Mn587   1.954       .  S
O561        C584   1.213       .  S
C562        C628   1.491       .  S
C562       O1568   1.273       .  A
C562        O564   1.273       .  A
Mn563       O576   2.113       .  S
O564       Mn587   2.097       .  S
Mn565       O581   2.089       .  S
Mn565       O575   1.945       .  S
O566       Mn571   2.109       .  S
C567        C619   1.478       .  S
C567        O585   1.254       .  A
C568        C643   1.494       .  S
C568        O581   1.272       .  A
Mn569      O1535   2.116       .  S
Mn569      O1050   2.175   1_565  S
O570       Mn573   1.952       .  S
Mn571       O589   1.965       .  S
C572        C664   1.488       .  S
Mn573       O580   2.086       .  S
Mn573       O588   2.095       .  S
Mn573      O1533   2.121   1_455  S
Mn573       O578   1.956       .  S
C574        C607   1.486       .  S
C574       O1560   1.270       .  A
C574        O590   1.272       .  A
O575       Mn587   1.954       .  S
O575        C577   1.212       .  S
C577        C715   1.479       .  S
O579       Mn582   2.069       .  S
O580       C1554   1.270   1_455  A
Mn582      O1531   1.940   1_455  S
Mn582      O1569   1.966   1_455  S
O583      Mn1534   2.124   1_455  S
C584        C691   1.478       .  S
O586        C591   1.255       .  A
Mn587       O590   2.102       .  S
O588       C1542   1.273   1_455  A
O589      Mn1562   1.966       .  S
O589        C591   1.219       .  S
C591        C595   1.476       .  S
C592        C593   1.410       .  A
C592        C597   1.410       .  A
C593        C594   1.405       .  A
C593        H843   1.083       .  S
C594        C595   1.407       .  A
C594        O599   1.371       .  S
C595        C596   1.402       .  A
C596        C597   1.395       .  A
C596       H1580   1.081       .  S
C597       O1581   1.374       .  S
H598        C838   1.083   1_554  S
O599        H603   0.992       .  S
H600       C1576   1.081       .  S
O601       C1577   1.374       .  S
O601        H602   0.992       .  S
C604        C605   1.400       .  A
C604        C609   1.407       .  A
C605        C606   1.402       .  A
C605        H855   1.084       .  S
C606        C607   1.413       .  A
C606        O611   1.368       .  S
C607        C608   1.406       .  A
C608        C609   1.398       .  A
C608        H612   1.083       .  S
C609        O613   1.373       .  S
H610        C850   1.084       .  S
O611        H615   0.992       .  S
O613        H614   0.992       .  S
C616        C617   1.413       .  A
C616       C1601   1.412       .  A
C617        C618   1.407       .  A
C617        H622   1.083       .  S
C618        C619   1.405       .  A
C618        O623   1.371       .  S
C619       C1600   1.403       .  A
C620       C1599   1.403   1_455  A
C620        C621   1.395       .  A
C620        H624   1.084       .  S
C621       C1596   1.412   1_455  A
C621        O625   1.374       .  S
O623        H627   0.991       .  S
O625        H626   0.992       .  S
C628        C629   1.410       .  A
C628        C633   1.416       .  A
C629        C630   1.402       .  A
C629        H634   1.084       .  S
C630        C631   1.404       .  A
C630        O635   1.372       .  S
C631        C632   1.400       .  A
C632        C633   1.401       .  A
C632        H636   1.084       .  S
C633        O637   1.372       .  S
O635        H639   0.992       .  S
O637        H638   0.992       .  S
C640        C641   1.399       .  A
C640        C645   1.406   1_565  A
C641        C642   1.399       .  A
C641        H646   1.084       .  S
C642        C643   1.418       .  A
C642        O647   1.372       .  S
C643        C644   1.410   1_565  A
C644        C645   1.405       .  A
C644        H648   1.083       .  S
C645        O894   1.371       .  S
O647        H651   0.991       .  S
O649        C890   1.371       .  S
O649        H650   0.992       .  S
C652        C653   1.411       .  A
C652        C657   1.410       .  A
C653        C654   1.409       .  A
C653        H903   1.083       .  S
C654        C655   1.408       .  A
C654        O659   1.371       .  S
C655        C656   1.401       .  A
C656        C657   1.394       .  A
H658        C898   1.083       .  S
O659        H663   0.991       .  S
O661        H662   0.992       .  S
C664        C665   1.410       .  A
C664        C669   1.413   1_565  A
C665        C666   1.404       .  A
C665        H670   1.083       .  S
C666        C667   1.405       .  A
C666        O671   1.371       .  S
C667        C668   1.402   1_565  A
C668        C669   1.397       .  A
C668        H672   1.084       .  S
C669        O673   1.372       .  S
O671        H675   0.992       .  S
O673        H674   0.992       .  S
C676        C677   1.404       .  A
C676        C681   1.416       .  A
C677        C678   1.393       .  A
C677        H682   1.083   1_565  S
C678        C679   1.411       .  A
C678        O683   1.372   1_565  S
C679        C680   1.404       .  A
C680        C681   1.407       .  A
C680        H684   1.084       .  S
C681        O685   1.372       .  S
O683        H687   0.992   1_545  S
O685        H686   0.992       .  S
C688        C689   1.403       .  A
C688        C693   1.414       .  A
C689        C690   1.394       .  A
C689        H694   1.083       .  S
C690        C691   1.412       .  A
C690        O695   1.374       .  S
C691        C692   1.403       .  A
C692        C693   1.405       .  A
C692        H696   1.083       .  S
C693        O697   1.371       .  S
O695        H699   0.992       .  S
O697        H943   0.992       .  S
H698        O942   0.992       .  S
C700        C701   1.410       .  A
C700        C705   1.410       .  A
C701        C702   1.397       .  A
C701        H706   1.083       .  S
C702        C703   1.403       .  A
C702        O707   1.373       .  S
C703        C704   1.403       .  A
C704        C705   1.403       .  A
C704        H708   1.084       .  S
C705        O709   1.369       .  S
O707        H711   0.992       .  S
O709        H710   0.992       .  S
C712        C713   1.400       .  A
C712        C717   1.415       .  A
C713        C714   1.391       .  A
C713        H718   1.083       .  S
C714        C715   1.414       .  A
C714        O719   1.374       .  S
C715        C716   1.403       .  A
C716        C717   1.405       .  A
C716        H720   1.083       .  S
C717        O721   1.371       .  S
O719        H723   0.992       .  S
O721        H722   0.992       .  S
C724        C725   1.409       .  A
C724        C729   1.412       .  A
C725        C726   1.400       .  A
C725        H730   1.083       .  S
C726        C727   1.407       .  A
C726        O731   1.373       .  S
C727        C728   1.404       .  A
C728        C729   1.403       .  A
C728        H732   1.084       .  S
C729        O733   1.369       .  S
O731        H735   0.992       .  S
O733        H734   0.992       .  S
C736        C737   1.396       .  A
C736        C741   1.403       .  A
C736        C972   1.483       .  S
C737        C738   1.401       .  A
C737        H742   1.083       .  S
C738        C739   1.400       .  A
C738        C957   1.488       .  S
C739        C740   1.414       .  A
C739        H743   1.079       .  S
C740        C741   1.418       .  A
C740        C749   1.507       .  S
C741        H744   1.078       .  S
C745        C746   1.396       .  A
C745        C948   1.477       .  S
C746        C747   1.400       .  A
C746        H751   1.083       .  S
C747        C933   1.490       .  S
C748        C749   1.418       .  A
C748        H752   1.079       .  S
C749        C750   1.415       .  A
C750        H753   1.079       .  S
C754        C755   1.402       .  A
C754        C759   1.395       .  A
C754        C912   1.481       .  S
C755        C756   1.419       .  A
C755        H760   1.078       .  S
C756        C757   1.419       .  A
C756        C767   1.515       .  S
C757        C758   1.404       .  A
C757        H761   1.076       .  S
C758        C759   1.401       .  A
C758        C921   1.495       .  S
C759        H762   1.084       .  S
C763        C764   1.396       .  A
C763        C885   1.480       .  S
C764        C765   1.400       .  A
C764        H769   1.084       .  S
C765        C897   1.493       .  S
C766        C767   1.421       .  A
C766        H770   1.077       .  S
C767        C768   1.420       .  A
C768        H771   1.078       .  S
C772        C773   1.400       .  A
C772        C777   1.393       .  A
C772        C876   1.476       .  S
C773        C774   1.420       .  A
C773        H778   1.076       .  S
C774        C775   1.422       .  A
C774        C783   1.521       .  S
C775        C776   1.406       .  A
C775        H779   1.073       .  S
C776        C777   1.401       .  A
C776        C861   1.496       .  S
C777        H780   1.083       .  S
C781        C786   1.393       .  A
C781        C849   1.478       .  S
C782        C783   1.421       .  A
C782        H787   1.076       .  S
C783        C784   1.422       .  A
C784        H788   1.074       .  S
C785        C786   1.397       .  A
C785        C837   1.490       .  S
C786        H789   1.083       .  S
O790       Mn816   2.093       .  S
C791        C945   1.487       .  S
C791        O824   1.266       .  A
C791        O821   1.274       .  A
O792       Mn799   2.165       .  S
O792       Mn810   2.111       .  S
O792       Mn814   2.177       .  S
O793       Mn827   2.111       .  S
O793        C803   1.274       .  A
O794       Mn810   2.093       .  S
O794        C817   1.270       .  A
O795       Mn814   2.123       .  S
O795        C822   1.254       .  A
O796      Mn1807   1.940       .  S
O796       Mn816   1.952       .  S
O796        C812   1.213       .  S
C797        C924   1.480       .  S
C797        O800   1.256       .  A
C797        O823   1.218       .  S
O798      Mn1798   2.121       .  S
O798       Mn799   2.171       .  S
O798       Mn832   2.111       .  S
O798       Mn814   2.168       .  S
Mn799      O1808   2.124       .  S
Mn799       O804   2.120       .  S
Mn799      O1295   2.176   1_565  S
O800      Mn1794   2.116   1_455  S
O801       Mn808   2.083       .  S
O801        C803   1.269       .  A
C802        C900   1.478       .  S
C802        O828   1.254       .  A
C802        O815   1.214       .  S
C803        C969   1.489       .  S
O804        C829   1.253       .  A
O805      Mn1289   2.176   1_455  S
O805       Mn808   2.118       .  S
O805       Mn827   2.118       .  S
O805      Mn1304   2.175   1_455  S
O806       Mn810   1.953       .  S
O806       Mn832   1.954       .  S
O806        C829   1.213       .  S
C807        C873   1.491       .  S
C807       O1813   1.273       .  A
C807        O809   1.273       .  A
Mn808       O821   2.113       .  S
O809       Mn832   2.097       .  S
Mn810       O826   2.089       .  S
Mn810       O820   1.945       .  S
O811       Mn816   2.109       .  S
C812        C864   1.478       .  S
C812        O830   1.254       .  A
C813        C888   1.494       .  S
C813        O826   1.272       .  A
Mn814      O1780   2.116       .  S
Mn814      O1295   2.175   1_565  S
O815       Mn818   1.952       .  S
Mn816       O834   1.965       .  S
C817        C909   1.488       .  S
Mn818       O825   2.086       .  S
Mn818       O833   2.095       .  S
Mn818      O1778   2.121   1_455  S
Mn818       O823   1.956       .  S
C819        C852   1.486       .  S
C819       O1805   1.270       .  A
C819        O835   1.273       .  A
O820       Mn832   1.954       .  S
O820        C822   1.212       .  S
C822        C960   1.479       .  S
O824       Mn827   2.069       .  S
O825       C1799   1.270   1_455  A
Mn827      O1776   1.940   1_455  S
Mn827      O1814   1.966   1_455  S
O828      Mn1779   2.124   1_455  S
C829        C936   1.478       .  S
O831        C836   1.255       .  A
Mn832       O835   2.102       .  S
O833       C1787   1.273   1_455  A
O834      Mn1807   1.966       .  S
O834        C836   1.219       .  S
C836        C840   1.476       .  S
C837        C838   1.410       .  A
C837        C842   1.410       .  A
C838        C839   1.405       .  A
C839        C840   1.407       .  A
C839        O844   1.371       .  S
C840        C841   1.402       .  A
C841        C842   1.395       .  A
C841       H1825   1.081       .  S
C842       O1826   1.374       .  S
O844        H848   0.992       .  S
H845       C1821   1.081       .  S
O846       C1822   1.374       .  S
O846        H847   0.992       .  S
C849        C850   1.400       .  A
C849        C854   1.407       .  A
C850        C851   1.402       .  A
C851        C852   1.413       .  A
C851        O856   1.368       .  S
C852        C853   1.406       .  A
C853        C854   1.398       .  A
C853        H857   1.083       .  S
C854        O858   1.373       .  S
O856        H860   0.992       .  S
O858        H859   0.992       .  S
C861        C862   1.413       .  A
C861       C1846   1.412       .  A
C862        C863   1.407       .  A
C862        H867   1.083       .  S
C863        C864   1.405       .  A
C863        O868   1.371       .  S
C864       C1845   1.403       .  A
C865       C1844   1.403   1_455  A
C865        C866   1.395       .  A
C865        H869   1.084       .  S
C866       C1841   1.412   1_455  A
C866        O870   1.374       .  S
O868        H872   0.991       .  S
O870        H871   0.992       .  S
C873        C874   1.410       .  A
C873        C878   1.416       .  A
C874        C875   1.402       .  A
C874        H879   1.084       .  S
C875        C876   1.404       .  A
C875        O880   1.372       .  S
C876        C877   1.400       .  A
C877        C878   1.401       .  A
C877        H881   1.084       .  S
C878        O882   1.372       .  S
O880        H884   0.992       .  S
O882        H883   0.992       .  S
C885        C886   1.399       .  A
C885        C890   1.406   1_565  A
C886        C887   1.399       .  A
C886        H891   1.084       .  S
C887        C888   1.418       .  A
C887        O892   1.372       .  S
C888        C889   1.410   1_565  A
C889        C890   1.405       .  A
C889        H893   1.083       .  S
O892        H896   0.991       .  S
O894        H895   0.992       .  S
C897        C898   1.411       .  A
C897        C902   1.410       .  A
C898        C899   1.409       .  A
C899        C900   1.408       .  A
C899        O904   1.371       .  S
C900        C901   1.401       .  A
C901        C902   1.394       .  A
O904        H908   0.991       .  S
O906        H907   0.992       .  S
C909        C910   1.410       .  A
C909        C914   1.413   1_565  A
C910        C911   1.404       .  A
C910        H915   1.083       .  S
C911        C912   1.405       .  A
C911        O916   1.371       .  S
C912        C913   1.403   1_565  A
C913        C914   1.397       .  A
C913        H917   1.084       .  S
C914        O918   1.372       .  S
O916        H920   0.992       .  S
O918        H919   0.992       .  S
C921        C922   1.404       .  A
C921        C926   1.416       .  A
C922        C923   1.393       .  A
C922        H927   1.083   1_565  S
C923        C924   1.411       .  A
C923        O928   1.372   1_565  S
C924        C925   1.404       .  A
C925        C926   1.407       .  A
C925        H929   1.084       .  S
C926        O930   1.372       .  S
O928        H932   0.992   1_545  S
O930        H931   0.992       .  S
C933        C934   1.403       .  A
C933        C938   1.414       .  A
C934        C935   1.394       .  A
C934        H939   1.083       .  S
C935        C936   1.412       .  A
C935        O940   1.374       .  S
C936        C937   1.403       .  A
C937        C938   1.405       .  A
C937        H941   1.083       .  S
C938        O942   1.371   1_556  S
O940        H944   0.992       .  S
C945        C946   1.410       .  A
C945        C950   1.410       .  A
C946        C947   1.397       .  A
C946        H951   1.083       .  S
C947        C948   1.403       .  A
C947        O952   1.373       .  S
C948        C949   1.403       .  A
C949        C950   1.403       .  A
C949        H953   1.084       .  S
C950        O954   1.369       .  S
O952        H956   0.992       .  S
O954        H955   0.992       .  S
C957        C958   1.400       .  A
C957        C962   1.415       .  A
C958        C959   1.391       .  A
C958        H963   1.083       .  S
C959        C960   1.414       .  A
C959        O964   1.374       .  S
C960        C961   1.403       .  A
C961        C962   1.405       .  A
C961        H965   1.083       .  S
C962        O966   1.371       .  S
O964        H968   0.992       .  S
O966        H967   0.992       .  S
C969        C970   1.409       .  A
C969        C974   1.412       .  A
C970        C971   1.400       .  A
C970        H975   1.083       .  S
C971        C972   1.407       .  A
C971        O976   1.373       .  S
C972        C973   1.404       .  A
C973        C974   1.403       .  A
C973        H977   1.084       .  S
C974        O978   1.369       .  S
O976        H980   0.992       .  S
O978        H979   0.992       .  S
C981        C982   1.396       .  A
C981        C986   1.403       .  A
C981       C1217   1.483       .  S
C982        C983   1.401       .  A
C982        H987   1.083       .  S
C983        C984   1.400       .  A
C983       C1202   1.488       .  S
C984        C985   1.414       .  A
C984        H988   1.079       .  S
C985        C986   1.418       .  A
C985        C994   1.507       .  S
C986        H989   1.078       .  S
C990        C991   1.396       .  A
C990       C1240   1.400       .  A
C990       C1193   1.477       .  S
C991        C992   1.400       .  A
C991        H996   1.083       .  S
C992       C1238   1.403       .  A
C992       C1178   1.489       .  S
C993       C1237   1.403   1_554  A
C993        C994   1.418       .  A
C993        H997   1.079       .  S
C994        C995   1.415       .  A
C995       C1235   1.400   1_554  A
C995        H998   1.079       .  S
C999       C1000   1.402       .  A
C999       C1004   1.395       .  A
C999       C1157   1.481       .  S
C1000      C1001   1.419       .  A
C1000      H1005   1.078       .  S
C1001      C1002   1.419       .  A
C1001      C1012   1.515       .  S
C1002      C1003   1.404       .  A
C1002      H1006   1.076       .  S
C1003      C1004   1.401       .  A
C1003      C1166   1.494       .  S
C1004      H1007   1.084       .  S
C1008      C1009   1.396       .  A
C1008      C1258   1.402       .  A
C1008      C1130   1.480       .  S
C1009      C1010   1.400       .  A
C1009      H1014   1.084       .  S
C1010      C1256   1.404       .  A
C1010      C1142   1.493       .  S
C1011      C1255   1.404   1_554  A
C1011      C1012   1.421       .  A
C1011      H1015   1.077       .  S
C1012      C1013   1.420       .  A
C1013      C1253   1.402   1_554  A
C1013      H1016   1.078       .  S
C1017      C1018   1.400       .  A
C1017      C1022   1.393       .  A
C1017      C1121   1.476       .  S
C1018      C1019   1.420       .  A
C1018      H1023   1.076       .  S
C1019      C1020   1.421       .  A
C1019      C1028   1.521       .  S
C1020      C1021   1.406       .  A
C1020      H1024   1.073       .  S
C1021      C1022   1.401       .  A
C1021      C1106   1.496       .  S
C1022      H1025   1.083       .  S
C1026      C1272   1.401       .  A
C1026      C1031   1.393       .  A
C1026      C1094   1.478       .  S
C1027      C1271   1.401   1_554  A
C1027      C1028   1.421       .  A
C1027      H1032   1.076       .  S
C1028      C1029   1.422       .  A
C1029      C1275   1.404   1_554  A
C1029      H1033   1.074       .  S
C1030      C1274   1.404       .  A
C1030      C1031   1.397       .  A
C1030      C1082   1.490       .  S
C1031      H1034   1.083       .  S
O1035     Mn1061   2.093       .  S
O1035      C1552   1.271   1_545  A
C1036      C1190   1.487       .  S
C1036      O1069   1.266       .  A
C1036      O1066   1.274       .  A
O1037     Mn1044   2.165       .  S
O1037     Mn1055   2.111       .  S
O1037     Mn1059   2.177       .  S
O1037     Mn1551   2.121       .  S
O1038     Mn1072   2.111       .  S
O1038      C1048   1.274       .  A
O1039     Mn1055   2.093       .  S
O1039      C1062   1.270       .  A
O1040     Mn1059   2.123       .  S
O1040      C1067   1.254       .  A
O1041     Mn1061   1.952       .  S
O1041      C1057   1.213       .  S
C1042      C1169   1.480       .  S
C1042      O1045   1.256       .  A
C1042      O1068   1.218       .  S
O1043     Mn1044   2.171       .  S
O1043     Mn1077   2.111       .  S
O1043     Mn1059   2.168       .  S
Mn1044     O1049   2.120       .  S
Mn1044     O1566   2.109       .  S
O1046     Mn1053   2.083       .  S
O1046      C1048   1.269       .  A
C1047      C1145   1.478       .  S
C1047      O1073   1.254       .  A
C1047      O1060   1.214       .  S
C1048      C1214   1.489       .  S
O1049      C1074   1.253       .  A
O1050     Mn1053   2.118       .  S
O1050     Mn1072   2.118       .  S
O1051     Mn1055   1.953       .  S
O1051     Mn1077   1.955       .  S
O1051      C1074   1.213       .  S
C1052      C1118   1.491       .  S
C1052      O1054   1.273       .  A
Mn1053     O1066   2.113       .  S
Mn1053     O1558   1.962   1_545  S
Mn1053     O1550   1.951   1_545  S
O1054     Mn1077   2.097       .  S
Mn1055     O1071   2.089       .  S
Mn1055     O1065   1.945       .  S
O1056     Mn1061   2.109       .  S
O1056      C1548   1.276   1_545  A
C1057      C1109   1.478       .  S
C1057      O1075   1.254       .  A
C1058      C1133   1.494       .  S
C1058      O1546   1.276       .  A
C1058      O1071   1.272       .  A
Mn1059     O1565   2.127       .  S
O1060     Mn1543   1.951       .  S
O1060     Mn1063   1.952       .  S
Mn1061     O1527   2.121   1_545  S
Mn1061     O1079   1.965       .  S
C1062      C1154   1.488       .  S
C1062      O1525   1.271       .  A
Mn1063     O1070   2.086       .  S
Mn1063     O1078   2.095       .  S
Mn1063     O1068   1.956       .  S
C1064      C1097   1.486       .  S
C1064      O1080   1.273       .  A
O1065     Mn1077   1.954       .  S
O1065      C1067   1.212       .  S
C1067      C1205   1.479       .  S
O1068     Mn1543   1.962       .  S
O1069     Mn1072   2.069       .  S
C1074      C1181   1.478       .  S
O1075     Mn1549   2.127   1_545  S
O1076     Mn1534   2.109   1_545  S
O1076      C1081   1.255       .  A
Mn1077     O1080   2.102       .  S
O1079      C1081   1.219       .  S
C1081      C1085   1.476       .  S
C1082      C1083   1.410       .  A
C1082      C1087   1.410   1_655  A
C1083      C1084   1.405       .  A
C1083      H1333   1.083       .  S
C1084      C1085   1.407       .  A
C1084      O1089   1.371       .  S
C1085      C1086   1.402   1_655  A
C1086      C1087   1.395       .  A
H1088      C1328   1.083   1_554  S
O1089      H1093   0.992       .  S
O1091      H1092   0.992       .  S
C1094      C1095   1.400       .  A
C1094      C1099   1.407   1_655  A
C1095      C1096   1.402       .  A
C1095      H1345   1.084       .  S
C1096      C1097   1.413       .  A
C1096      O1101   1.368       .  S
C1097      C1098   1.406   1_655  A
C1098      C1099   1.398       .  A
C1098      H1102   1.083       .  S
C1099      O1103   1.373       .  S
H1100      C1340   1.084       .  S
O1101      H1105   0.992       .  S
O1103      H1104   0.992       .  S
C1106      C1107   1.413       .  A
C1107      C1108   1.407       .  A
C1107      H1112   1.083       .  S
C1108      C1109   1.405       .  A
C1108      O1113   1.371       .  S
C1110      C1111   1.395       .  A
C1110      H1114   1.084       .  S
C1111      O1115   1.374       .  S
O1113      H1117   0.991       .  S
O1115      H1116   0.992       .  S
C1118      C1119   1.410       .  A
C1118      C1123   1.416   1_655  A
C1119      C1120   1.402       .  A
C1119      H1124   1.084       .  S
C1120      C1121   1.404       .  A
C1120      O1125   1.372       .  S
C1121      C1122   1.400   1_655  A
C1122      C1123   1.401       .  A
C1122      H1126   1.084       .  S
C1123      O1127   1.372       .  S
O1125      H1129   0.992       .  S
O1127      H1128   0.992       .  S
C1130      C1131   1.399       .  A
C1130      C1135   1.406       .  A
C1131      C1132   1.399       .  A
C1131      H1136   1.084       .  S
C1132      C1133   1.418       .  A
C1132      O1137   1.372       .  S
C1133      C1134   1.410       .  A
C1134      C1135   1.405       .  A
C1134      H1138   1.083       .  S
C1135      O1384   1.371       .  S
O1137      H1141   0.991       .  S
O1139      C1380   1.371       .  S
O1139      H1140   0.992       .  S
C1142      C1143   1.411       .  A
C1142      C1147   1.410       .  A
C1143      C1144   1.409       .  A
C1143      H1393   1.083       .  S
C1144      C1145   1.408       .  A
C1144      O1149   1.371       .  S
C1145      C1146   1.401       .  A
C1146      C1147   1.394       .  A
C1146      H1640   1.084       .  S
C1147      O1641   1.374       .  S
H1148      C1388   1.083       .  S
O1149      H1153   0.991       .  S
H1150      C1636   1.084   1_545  S
O1151      C1637   1.374   1_545  S
O1151      H1152   0.992       .  S
C1154      C1155   1.410       .  A
C1154      C1159   1.413       .  A
C1155      C1156   1.404       .  A
C1155      H1160   1.083       .  S
C1156      C1157   1.405       .  A
C1156      O1161   1.371       .  S
C1157      C1158   1.402       .  A
C1158      C1159   1.397       .  A
C1158      H1162   1.084       .  S
C1159      O1163   1.372       .  S
O1161      H1165   0.992       .  S
O1163      H1164   0.992       .  S
C1166      C1167   1.404       .  A
C1166      C1171   1.416       .  A
C1167      C1168   1.393       .  A
C1167      H1172   1.083       .  S
C1168      C1169   1.411       .  A
C1168      O1173   1.372       .  S
C1169      C1170   1.404       .  A
C1170      C1171   1.407       .  A
C1170      H1174   1.084       .  S
C1171      O1175   1.372       .  S
O1173      H1177   0.992       .  S
O1175      H1176   0.992       .  S
C1178      C1179   1.403       .  A
C1178      C1183   1.414       .  A
C1179      C1180   1.394       .  A
C1179      H1184   1.083       .  S
C1180      C1181   1.412       .  A
C1180      O1185   1.374       .  S
C1181      C1182   1.403       .  A
C1182      C1183   1.405       .  A
C1182      H1186   1.083       .  S
C1183      O1187   1.371       .  S
O1185      H1189   0.992       .  S
O1187      H1433   0.992       .  S
H1188      O1432   0.993       .  S
C1190      C1191   1.410       .  A
C1190      C1195   1.410       .  A
C1191      C1192   1.397       .  A
C1191      H1196   1.083       .  S
C1192      C1193   1.403       .  A
C1192      O1197   1.373       .  S
C1193      C1194   1.403       .  A
C1194      C1195   1.403       .  A
C1194      H1198   1.084       .  S
C1195      O1199   1.369       .  S
O1197      H1201   0.992       .  S
O1199      H1200   0.992       .  S
C1202      C1203   1.400       .  A
C1202      C1207   1.415       .  A
C1203      C1204   1.391       .  A
C1203      H1208   1.083       .  S
C1204      C1205   1.414       .  A
C1204      O1209   1.374       .  S
C1205      C1206   1.403       .  A
C1206      C1207   1.405       .  A
C1206      H1210   1.083       .  S
C1207      O1211   1.371       .  S
O1209      H1213   0.992       .  S
O1211      H1212   0.992       .  S
C1214      C1215   1.409       .  A
C1214      C1219   1.412       .  A
C1215      C1216   1.400       .  A
C1215      H1220   1.083       .  S
C1216      C1217   1.407       .  A
C1216      O1221   1.373       .  S
C1217      C1218   1.404       .  A
C1218      C1219   1.403       .  A
C1218      H1222   1.084       .  S
C1219      O1223   1.369       .  S
O1221      H1225   0.992       .  S
O1223      H1224   0.992       .  S
C1226      C1227   1.396       .  A
C1226      C1231   1.403       .  A
C1226      C1462   1.483       .  S
C1227      C1228   1.401       .  A
C1227      H1232   1.083       .  S
C1228      C1229   1.400       .  A
C1228      C1447   1.488       .  S
C1229      C1230   1.414       .  A
C1229      H1233   1.079       .  S
C1230      C1231   1.418       .  A
C1230      C1239   1.507       .  S
C1231      H1234   1.078       .  S
C1235      C1236   1.396       .  A
C1235      C1438   1.477       .  S
C1236      C1237   1.400       .  A
C1236      H1241   1.083       .  S
C1237      C1423   1.490       .  S
C1238      C1239   1.418       .  A
C1238      H1242   1.079       .  S
C1239      C1240   1.415       .  A
C1240      H1243   1.079       .  S
C1244      C1245   1.402       .  A
C1244      C1249   1.395       .  A
C1244      C1402   1.481       .  S
C1245      C1246   1.419       .  A
C1245      H1250   1.078       .  S
C1246      C1247   1.419       .  A
C1246      C1257   1.515       .  S
C1247      C1248   1.404       .  A
C1247      H1251   1.076       .  S
C1248      C1249   1.401       .  A
C1248      C1411   1.495       .  S
C1249      H1252   1.084       .  S
C1253      C1254   1.396       .  A
C1253      C1375   1.480       .  S
C1254      C1255   1.400       .  A
C1254      H1259   1.084       .  S
C1255      C1387   1.493       .  S
C1256      C1257   1.421       .  A
C1256      H1260   1.077       .  S
C1257      C1258   1.420       .  A
C1258      H1261   1.078       .  S
C1262      C1263   1.400       .  A
C1262      C1267   1.393       .  A
C1262      C1366   1.476       .  S
C1263      C1264   1.420       .  A
C1263      H1268   1.076       .  S
C1264      C1265   1.422       .  A
C1264      C1273   1.521       .  S
C1265      C1266   1.406       .  A
C1265      H1269   1.073       .  S
C1266      C1267   1.401       .  A
C1266      C1351   1.496       .  S
C1267      H1270   1.083       .  S
C1271      C1276   1.393       .  A
C1271      C1339   1.478       .  S
C1272      C1273   1.421       .  A
C1272      H1277   1.076       .  S
C1273      C1274   1.422       .  A
C1274      H1278   1.074       .  S
C1275      C1276   1.397       .  A
C1275      C1327   1.490       .  S
C1276      H1279   1.083       .  S
O1280     Mn1306   2.093       .  S
O1280      C1797   1.271   1_545  A
C1281      C1435   1.487       .  S
C1281      O1314   1.266       .  A
C1281      O1311   1.274       .  A
O1282     Mn1289   2.165       .  S
O1282     Mn1300   2.111       .  S
O1282     Mn1304   2.177       .  S
O1282     Mn1796   2.121       .  S
O1283     Mn1317   2.111       .  S
O1283      C1293   1.274       .  A
O1284     Mn1300   2.093       .  S
O1284      C1307   1.270       .  A
O1285     Mn1304   2.123       .  S
O1285      C1312   1.254       .  A
O1286     Mn1306   1.952       .  S
O1286      C1302   1.213       .  S
C1287      C1414   1.481       .  S
C1287      O1290   1.256       .  A
C1287      O1313   1.218       .  S
O1288     Mn1289   2.171       .  S
O1288     Mn1322   2.111       .  S
O1288     Mn1304   2.168       .  S
Mn1289     O1294   2.120       .  S
Mn1289     O1811   2.109       .  S
O1291     Mn1298   2.083       .  S
O1291      C1293   1.269       .  A
C1292      C1390   1.478       .  S
C1292      O1318   1.254       .  A
C1292      O1305   1.214       .  S
C1293      C1459   1.489       .  S
O1294      C1319   1.253       .  A
O1295     Mn1298   2.118       .  S
O1295     Mn1317   2.118       .  S
O1296     Mn1300   1.953       .  S
O1296     Mn1322   1.954       .  S
O1296      C1319   1.213       .  S
C1297      C1363   1.491       .  S
C1297      O1299   1.273       .  A
Mn1298     O1311   2.113       .  S
Mn1298     O1803   1.962   1_545  S
Mn1298     O1795   1.951   1_545  S
O1299     Mn1322   2.097       .  S
Mn1300     O1316   2.089       .  S
Mn1300     O1310   1.945       .  S
O1301     Mn1306   2.109       .  S
O1301      C1793   1.276   1_545  A
C1302      C1354   1.478       .  S
C1302      O1320   1.254       .  A
C1303      C1378   1.494       .  S
C1303      O1791   1.276       .  A
C1303      O1316   1.272       .  A
Mn1304     O1810   2.127       .  S
O1305     Mn1788   1.951       .  S
O1305     Mn1308   1.952       .  S
Mn1306     O1772   2.121   1_545  S
Mn1306     O1324   1.965       .  S
C1307      C1399   1.488       .  S
C1307      O1770   1.271       .  A
Mn1308     O1315   2.086       .  S
Mn1308     O1323   2.095       .  S
Mn1308     O1313   1.956       .  S
C1309      C1342   1.486       .  S
C1309      O1325   1.272       .  A
O1310     Mn1322   1.954       .  S
O1310      C1312   1.212       .  S
C1312      C1450   1.479       .  S
O1313     Mn1788   1.962       .  S
O1314     Mn1317   2.069       .  S
C1319      C1426   1.478       .  S
O1320     Mn1794   2.127   1_545  S
O1321     Mn1779   2.109   1_545  S
O1321      C1326   1.255       .  A
Mn1322     O1325   2.102       .  S
O1324      C1326   1.219       .  S
C1326      C1330   1.476       .  S
C1327      C1328   1.410       .  A
C1327      C1332   1.410   1_655  A
C1328      C1329   1.405       .  A
C1329      C1330   1.407       .  A
C1329      O1334   1.371       .  S
C1330      C1331   1.402   1_655  A
C1331      C1332   1.395       .  A
O1334      H1338   0.992       .  S
O1336      H1337   0.992       .  S
C1339      C1340   1.400       .  A
C1339      C1344   1.407   1_655  A
C1340      C1341   1.402       .  A
C1341      C1342   1.413       .  A
C1341      O1346   1.368       .  S
C1342      C1343   1.406   1_655  A
C1343      C1344   1.398       .  A
C1343      H1347   1.083       .  S
C1344      O1348   1.373       .  S
O1346      H1350   0.992       .  S
O1348      H1349   0.992       .  S
C1351      C1352   1.413       .  A
C1352      C1353   1.407       .  A
C1352      H1357   1.083       .  S
C1353      C1354   1.405       .  A
C1353      O1358   1.371       .  S
C1355      C1356   1.395       .  A
C1355      H1359   1.084       .  S
C1356      O1360   1.374       .  S
O1358      H1362   0.991       .  S
O1360      H1361   0.992       .  S
C1363      C1364   1.410       .  A
C1363      C1368   1.416   1_655  A
C1364      C1365   1.402       .  A
C1364      H1369   1.084       .  S
C1365      C1366   1.404       .  A
C1365      O1370   1.372       .  S
C1366      C1367   1.400   1_655  A
C1367      C1368   1.401       .  A
C1367      H1371   1.084       .  S
C1368      O1372   1.372       .  S
O1370      H1374   0.992       .  S
O1372      H1373   0.992       .  S
C1375      C1376   1.399       .  A
C1375      C1380   1.406       .  A
C1376      C1377   1.399       .  A
C1376      H1381   1.084       .  S
C1377      C1378   1.418       .  A
C1377      O1382   1.372       .  S
C1378      C1379   1.410       .  A
C1379      C1380   1.405       .  A
C1379      H1383   1.083       .  S
O1382      H1386   0.991       .  S
O1384      H1385   0.992       .  S
C1387      C1388   1.411       .  A
C1387      C1392   1.410       .  A
C1388      C1389   1.409       .  A
C1389      C1390   1.408       .  A
C1389      O1394   1.371       .  S
C1390      C1391   1.401       .  A
C1391      C1392   1.395       .  A
C1391      H1885   1.084       .  S
C1392      O1886   1.374       .  S
O1394      H1398   0.991       .  S
H1395      C1881   1.084   1_545  S
O1396      C1882   1.374   1_545  S
O1396      H1397   0.992       .  S
C1399      C1400   1.410       .  A
C1399      C1404   1.412       .  A
C1400      C1401   1.404       .  A
C1400      H1405   1.083       .  S
C1401      C1402   1.405       .  A
C1401      O1406   1.371       .  S
C1402      C1403   1.403       .  A
C1403      C1404   1.397       .  A
C1403      H1407   1.084       .  S
C1404      O1408   1.372       .  S
O1406      H1410   0.992       .  S
O1408      H1409   0.992       .  S
C1411      C1412   1.404       .  A
C1411      C1416   1.416       .  A
C1412      C1413   1.393       .  A
C1412      H1417   1.083       .  S
C1413      C1414   1.411       .  A
C1413      O1418   1.372       .  S
C1414      C1415   1.404       .  A
C1415      C1416   1.407       .  A
C1415      H1419   1.084       .  S
C1416      O1420   1.372       .  S
O1418      H1422   0.992       .  S
O1420      H1421   0.992       .  S
C1423      C1424   1.403       .  A
C1423      C1428   1.414       .  A
C1424      C1425   1.394       .  A
C1424      H1429   1.083       .  S
C1425      C1426   1.412       .  A
C1425      O1430   1.374       .  S
C1426      C1427   1.403       .  A
C1427      C1428   1.405       .  A
C1427      H1431   1.083       .  S
C1428      O1432   1.371   1_556  S
O1430      H1434   0.992       .  S
C1435      C1436   1.410       .  A
C1435      C1440   1.410       .  A
C1436      C1437   1.397       .  A
C1436      H1441   1.083       .  S
C1437      C1438   1.403       .  A
C1437      O1442   1.373       .  S
C1438      C1439   1.403       .  A
C1439      C1440   1.403       .  A
C1439      H1443   1.084       .  S
C1440      O1444   1.369       .  S
O1442      H1446   0.992       .  S
O1444      H1445   0.992       .  S
C1447      C1448   1.400       .  A
C1447      C1452   1.415       .  A
C1448      C1449   1.391       .  A
C1448      H1453   1.083       .  S
C1449      C1450   1.414       .  A
C1449      O1454   1.374       .  S
C1450      C1451   1.403       .  A
C1451      C1452   1.405       .  A
C1451      H1455   1.083       .  S
C1452      O1456   1.371       .  S
O1454      H1458   0.992       .  S
O1456      H1457   0.992       .  S
C1459      C1460   1.409       .  A
C1459      C1464   1.412       .  A
C1460      C1461   1.400       .  A
C1460      H1465   1.083       .  S
C1461      C1462   1.407       .  A
C1461      O1466   1.373       .  S
C1462      C1463   1.404       .  A
C1463      C1464   1.403       .  A
C1463      H1467   1.084       .  S
C1464      O1468   1.369       .  S
O1466      H1470   0.992       .  S
O1468      H1469   0.992       .  S
C1471      C1472   1.396       .  A
C1471      C1476   1.403       .  A
C1471      C1707   1.483       .  S
C1472      C1473   1.401       .  A
C1472      H1477   1.083       .  S
C1473      C1474   1.400       .  A
C1473      C1692   1.488       .  S
C1474      C1475   1.414       .  A
C1474      H1478   1.079       .  S
C1475      C1476   1.418       .  A
C1475      C1484   1.507       .  S
C1476      H1479   1.078       .  S
C1480      C1481   1.396       .  A
C1480      C1730   1.400       .  A
C1480      C1683   1.477       .  S
C1481      C1482   1.400       .  A
C1481      H1486   1.083       .  S
C1482      C1728   1.403       .  A
C1482      C1668   1.490       .  S
C1483      C1727   1.403   1_554  A
C1483      C1484   1.418       .  A
C1483      H1487   1.079       .  S
C1484      C1485   1.415       .  A
C1485      C1725   1.400   1_554  A
C1485      H1488   1.079       .  S
C1489      C1490   1.402       .  A
C1489      C1494   1.395       .  A
C1489      C1647   1.481       .  S
C1490      C1491   1.419       .  A
C1490      H1495   1.078       .  S
C1491      C1492   1.419       .  A
C1491      C1502   1.515       .  S
C1492      C1493   1.404       .  A
C1492      H1496   1.076       .  S
C1493      C1494   1.401       .  A
C1493      C1656   1.494       .  S
C1494      H1497   1.084       .  S
C1498      C1499   1.396       .  A
C1498      C1748   1.402       .  A
C1498      C1620   1.480       .  S
C1499      C1500   1.400       .  A
C1499      H1504   1.084       .  S
C1500      C1746   1.404       .  A
C1500      C1632   1.493       .  S
C1501      C1745   1.404   1_554  A
C1501      C1502   1.421       .  A
C1501      H1505   1.077       .  S
C1502      C1503   1.420       .  A
C1503      C1743   1.402   1_554  A
C1503      H1506   1.078       .  S
C1507      C1508   1.400       .  A
C1507      C1512   1.393       .  A
C1507      C1611   1.476       .  S
C1508      C1509   1.420       .  A
C1508      H1513   1.076       .  S
C1509      C1510   1.422       .  A
C1509      C1518   1.521       .  S
C1510      C1511   1.406       .  A
C1510      H1514   1.073       .  S
C1511      C1512   1.401       .  A
C1511      C1596   1.496       .  S
C1512      H1515   1.083       .  S
C1516      C1762   1.401       .  A
C1516      C1521   1.393       .  A
C1516      C1584   1.478       .  S
C1517      C1761   1.401   1_554  A
C1517      C1518   1.421       .  A
C1517      H1522   1.076       .  S
C1518      C1519   1.422       .  A
C1519      C1765   1.404   1_554  A
C1519      H1523   1.074       .  S
C1520      C1764   1.404       .  A
C1520      C1521   1.397       .  A
C1520      C1572   1.490       .  S
C1521      H1524   1.083       .  S
O1525     Mn1551   2.093       .  S
C1526      C1680   1.487       .  S
C1526      O1559   1.266       .  A
C1526      O1556   1.274       .  A
O1527     Mn1534   2.165       .  S
O1527     Mn1545   2.111       .  S
O1527     Mn1549   2.177       .  S
O1528     Mn1562   2.111       .  S
O1528      C1538   1.274       .  A
O1529     Mn1545   2.093       .  S
O1529      C1552   1.270       .  A
O1530     Mn1549   2.123       .  S
O1530      C1557   1.254       .  A
O1531     Mn1551   1.952       .  S
O1531      C1547   1.213       .  S
C1532      C1659   1.480       .  S
C1532      O1535   1.256       .  A
C1532      O1558   1.218       .  S
O1533     Mn1534   2.171       .  S
O1533     Mn1567   2.111       .  S
O1533     Mn1549   2.168       .  S
Mn1534     O1539   2.120       .  S
O1536     Mn1543   2.083       .  S
O1536      C1538   1.269       .  A
C1537      C1635   1.478       .  S
C1537      O1563   1.254       .  A
C1537      O1550   1.214       .  S
C1538      C1704   1.489       .  S
O1539      C1564   1.253       .  A
O1540     Mn1543   2.118       .  S
O1540     Mn1562   2.118       .  S
O1541     Mn1545   1.953       .  S
O1541     Mn1567   1.954       .  S
O1541      C1564   1.213       .  S
C1542      C1608   1.491       .  S
C1542      O1544   1.273       .  A
Mn1543     O1556   2.113       .  S
O1544     Mn1567   2.097       .  S
Mn1545     O1561   2.089       .  S
Mn1545     O1555   1.945       .  S
O1546     Mn1551   2.109       .  S
C1547      C1599   1.478       .  S
C1547      O1565   1.254       .  A
C1548      C1623   1.494       .  S
C1548      O1561   1.272       .  A
O1550     Mn1553   1.952       .  S
Mn1551     O1569   1.965       .  S
C1552      C1644   1.488       .  S
Mn1553     O1560   2.086       .  S
Mn1553     O1568   2.095       .  S
Mn1553     O1558   1.956       .  S
C1554      C1587   1.486       .  S
C1554      O1570   1.272       .  A
O1555     Mn1567   1.954       .  S
O1555      C1557   1.212       .  S
C1557      C1695   1.479       .  S
O1559     Mn1562   2.069       .  S
C1564      C1671   1.478       .  S
O1566      C1571   1.255       .  A
Mn1567     O1570   2.102       .  S
O1569      C1571   1.219       .  S
C1571      C1575   1.476       .  S
C1572      C1573   1.410       .  A
C1572      C1577   1.410   1_655  A
C1573      C1574   1.405       .  A
C1573      H1823   1.083       .  S
C1574      C1575   1.407       .  A
C1574      O1579   1.371       .  S
C1575      C1576   1.402   1_655  A
C1576      C1577   1.395       .  A
H1578      C1818   1.083   1_554  S
O1579      H1583   0.992       .  S
O1581      H1582   0.992       .  S
C1584      C1585   1.400       .  A
C1584      C1589   1.407   1_655  A
C1585      C1586   1.402       .  A
C1585      H1835   1.084       .  S
C1586      C1587   1.413       .  A
C1586      O1591   1.368       .  S
C1587      C1588   1.406   1_655  A
C1588      C1589   1.398       .  A
C1588      H1592   1.083       .  S
C1589      O1593   1.373       .  S
H1590      C1830   1.084       .  S
O1591      H1595   0.992       .  S
O1593      H1594   0.992       .  S
C1596      C1597   1.413       .  A
C1597      C1598   1.407       .  A
C1597      H1602   1.083       .  S
C1598      C1599   1.405       .  A
C1598      O1603   1.371       .  S
C1600      C1601   1.395       .  A
C1600      H1604   1.084       .  S
C1601      O1605   1.374       .  S
O1603      H1607   0.991       .  S
O1605      H1606   0.992       .  S
C1608      C1609   1.410       .  A
C1608      C1613   1.416   1_655  A
C1609      C1610   1.402       .  A
C1609      H1614   1.084       .  S
C1610      C1611   1.404       .  A
C1610      O1615   1.372       .  S
C1611      C1612   1.400   1_655  A
C1612      C1613   1.401       .  A
C1612      H1616   1.084       .  S
C1613      O1617   1.372       .  S
O1615      H1619   0.992       .  S
O1617      H1618   0.992       .  S
C1620      C1621   1.399       .  A
C1620      C1625   1.406   1_565  A
C1621      C1622   1.399       .  A
C1621      H1626   1.084       .  S
C1622      C1623   1.418       .  A
C1622      O1627   1.372       .  S
C1623      C1624   1.410   1_565  A
C1624      C1625   1.405       .  A
C1624      H1628   1.083       .  S
C1625      O1874   1.371       .  S
O1627      H1631   0.991       .  S
O1629      C1870   1.371       .  S
O1629      H1630   0.992       .  S
C1632      C1633   1.411       .  A
C1632      C1637   1.410       .  A
C1633      C1634   1.409       .  A
C1633      H1883   1.083       .  S
C1634      C1635   1.408       .  A
C1634      O1639   1.371       .  S
C1635      C1636   1.401       .  A
C1636      C1637   1.394       .  A
H1638      C1878   1.083       .  S
O1639      H1643   0.991       .  S
O1641      H1642   0.992       .  S
C1644      C1645   1.410       .  A
C1644      C1649   1.413   1_565  A
C1645      C1646   1.404       .  A
C1645      H1650   1.083       .  S
C1646      C1647   1.405       .  A
C1646      O1651   1.371       .  S
C1647      C1648   1.403   1_565  A
C1648      C1649   1.397       .  A
C1648      H1652   1.084       .  S
C1649      O1653   1.372       .  S
O1651      H1655   0.992       .  S
O1653      H1654   0.992       .  S
C1656      C1657   1.404       .  A
C1656      C1661   1.416       .  A
C1657      C1658   1.393       .  A
C1657      H1662   1.083   1_565  S
C1658      C1659   1.411       .  A
C1658      O1663   1.372   1_565  S
C1659      C1660   1.404       .  A
C1660      C1661   1.407       .  A
C1660      H1664   1.084       .  S
C1661      O1665   1.372       .  S
O1663      H1667   0.992   1_545  S
O1665      H1666   0.992       .  S
C1668      C1669   1.403       .  A
C1668      C1673   1.414       .  A
C1669      C1670   1.394       .  A
C1669      H1674   1.083       .  S
C1670      C1671   1.412       .  A
C1670      O1675   1.374       .  S
C1671      C1672   1.403       .  A
C1672      C1673   1.405       .  A
C1672      H1676   1.083       .  S
C1673      O1677   1.371       .  S
O1675      H1679   0.992       .  S
O1677      H1923   0.993       .  S
H1678      O1922   0.993       .  S
C1680      C1681   1.410       .  A
C1680      C1685   1.410       .  A
C1681      C1682   1.397       .  A
C1681      H1686   1.083       .  S
C1682      C1683   1.403       .  A
C1682      O1687   1.373       .  S
C1683      C1684   1.403       .  A
C1684      C1685   1.403       .  A
C1684      H1688   1.084       .  S
C1685      O1689   1.369       .  S
O1687      H1691   0.992       .  S
O1689      H1690   0.992       .  S
C1692      C1693   1.400       .  A
C1692      C1697   1.415       .  A
C1693      C1694   1.391       .  A
C1693      H1698   1.083       .  S
C1694      C1695   1.414       .  A
C1694      O1699   1.374       .  S
C1695      C1696   1.403       .  A
C1696      C1697   1.405       .  A
C1696      H1700   1.083       .  S
C1697      O1701   1.371       .  S
O1699      H1703   0.992       .  S
O1701      H1702   0.992       .  S
C1704      C1705   1.409       .  A
C1704      C1709   1.412       .  A
C1705      C1706   1.400       .  A
C1705      H1710   1.083       .  S
C1706      C1707   1.407       .  A
C1706      O1711   1.373       .  S
C1707      C1708   1.404       .  A
C1708      C1709   1.403       .  A
C1708      H1712   1.084       .  S
C1709      O1713   1.369       .  S
O1711      H1715   0.992       .  S
O1713      H1714   0.992       .  S
C1716      C1717   1.396       .  A
C1716      C1721   1.403       .  A
C1716      C1952   1.483       .  S
C1717      C1718   1.401       .  A
C1717      H1722   1.083       .  S
C1718      C1719   1.400       .  A
C1718      C1937   1.488       .  S
C1719      C1720   1.414       .  A
C1719      H1723   1.079       .  S
C1720      C1721   1.418       .  A
C1720      C1729   1.507       .  S
C1721      H1724   1.078       .  S
C1725      C1726   1.396       .  A
C1725      C1928   1.477       .  S
C1726      C1727   1.400       .  A
C1726      H1731   1.083       .  S
C1727      C1913   1.490       .  S
C1728      C1729   1.418       .  A
C1728      H1732   1.079       .  S
C1729      C1730   1.415       .  A
C1730      H1733   1.079       .  S
C1734      C1735   1.402       .  A
C1734      C1739   1.395       .  A
C1734      C1892   1.481       .  S
C1735      C1736   1.419       .  A
C1735      H1740   1.078       .  S
C1736      C1737   1.419       .  A
C1736      C1747   1.515       .  S
C1737      C1738   1.404       .  A
C1737      H1741   1.076       .  S
C1738      C1739   1.401       .  A
C1738      C1901   1.495       .  S
C1739      H1742   1.084       .  S
C1743      C1744   1.396       .  A
C1743      C1865   1.480       .  S
C1744      C1745   1.400       .  A
C1744      H1749   1.084       .  S
C1745      C1877   1.493       .  S
C1746      C1747   1.421       .  A
C1746      H1750   1.077       .  S
C1747      C1748   1.420       .  A
C1748      H1751   1.078       .  S
C1752      C1753   1.400       .  A
C1752      C1757   1.393       .  A
C1752      C1856   1.476       .  S
C1753      C1754   1.420       .  A
C1753      H1758   1.076       .  S
C1754      C1755   1.422       .  A
C1754      C1763   1.521       .  S
C1755      C1756   1.406       .  A
C1755      H1759   1.073       .  S
C1756      C1757   1.401       .  A
C1756      C1841   1.496       .  S
C1757      H1760   1.083       .  S
C1761      C1766   1.393       .  A
C1761      C1829   1.478       .  S
C1762      C1763   1.421       .  A
C1762      H1767   1.076       .  S
C1763      C1764   1.422       .  A
C1764      H1768   1.074       .  S
C1765      C1766   1.397       .  A
C1765      C1817   1.490       .  S
C1766      H1769   1.083       .  S
O1770     Mn1796   2.093       .  S
C1771      C1925   1.487       .  S
C1771      O1804   1.266       .  A
C1771      O1801   1.274       .  A
O1772     Mn1779   2.165       .  S
O1772     Mn1790   2.111       .  S
O1772     Mn1794   2.177       .  S
O1773     Mn1807   2.111       .  S
O1773      C1783   1.274       .  A
O1774     Mn1790   2.093       .  S
O1774      C1797   1.270       .  A
O1775     Mn1794   2.123       .  S
O1775      C1802   1.254       .  A
O1776     Mn1796   1.952       .  S
O1776      C1792   1.213       .  S
C1777      C1904   1.480       .  S
C1777      O1780   1.256       .  A
C1777      O1803   1.218       .  S
O1778     Mn1779   2.171       .  S
O1778     Mn1812   2.111       .  S
O1778     Mn1794   2.168       .  S
Mn1779     O1784   2.120       .  S
O1781     Mn1788   2.083       .  S
O1781      C1783   1.269       .  A
C1782      C1880   1.478       .  S
C1782      O1808   1.254       .  A
C1782      O1795   1.214       .  S
C1783      C1949   1.489       .  S
O1784      C1809   1.253       .  A
O1785     Mn1788   2.118       .  S
O1785     Mn1807   2.118       .  S
O1786     Mn1790   1.953       .  S
O1786     Mn1812   1.954       .  S
O1786      C1809   1.213       .  S
C1787      C1853   1.491       .  S
C1787      O1789   1.273       .  A
Mn1788     O1801   2.113       .  S
O1789     Mn1812   2.097       .  S
Mn1790     O1806   2.089       .  S
Mn1790     O1800   1.945       .  S
O1791     Mn1796   2.109       .  S
C1792      C1844   1.478       .  S
C1792      O1810   1.254       .  A
C1793      C1868   1.494       .  S
C1793      O1806   1.272       .  A
O1795     Mn1798   1.952       .  S
Mn1796     O1814   1.965       .  S
C1797      C1889   1.488       .  S
Mn1798     O1805   2.086       .  S
Mn1798     O1813   2.095       .  S
Mn1798     O1803   1.956       .  S
C1799      C1832   1.486       .  S
C1799      O1815   1.273       .  A
O1800     Mn1812   1.954       .  S
O1800      C1802   1.212       .  S
C1802      C1940   1.479       .  S
O1804     Mn1807   2.069       .  S
C1809      C1916   1.478       .  S
O1811      C1816   1.255       .  A
Mn1812     O1815   2.102       .  S
O1814      C1816   1.219       .  S
C1816      C1820   1.476       .  S
C1817      C1818   1.410       .  A
C1817      C1822   1.410   1_655  A
C1818      C1819   1.405       .  A
C1819      C1820   1.407       .  A
C1819      O1824   1.371       .  S
C1820      C1821   1.402   1_655  A
C1821      C1822   1.395       .  A
O1824      H1828   0.992       .  S
O1826      H1827   0.992       .  S
C1829      C1830   1.400       .  A
C1829      C1834   1.407   1_655  A
C1830      C1831   1.402       .  A
C1831      C1832   1.413       .  A
C1831      O1836   1.368       .  S
C1832      C1833   1.406   1_655  A
C1833      C1834   1.398       .  A
C1833      H1837   1.083       .  S
C1834      O1838   1.373       .  S
O1836      H1840   0.992       .  S
O1838      H1839   0.992       .  S
C1841      C1842   1.413       .  A
C1842      C1843   1.407       .  A
C1842      H1847   1.083       .  S
C1843      C1844   1.405       .  A
C1843      O1848   1.371       .  S
C1845      C1846   1.395       .  A
C1845      H1849   1.084       .  S
C1846      O1850   1.374       .  S
O1848      H1852   0.991       .  S
O1850      H1851   0.992       .  S
C1853      C1854   1.410       .  A
C1853      C1858   1.416   1_655  A
C1854      C1855   1.402       .  A
C1854      H1859   1.084       .  S
C1855      C1856   1.404       .  A
C1855      O1860   1.372       .  S
C1856      C1857   1.400   1_655  A
C1857      C1858   1.401       .  A
C1857      H1861   1.084       .  S
C1858      O1862   1.372       .  S
O1860      H1864   0.992       .  S
O1862      H1863   0.992       .  S
C1865      C1866   1.399       .  A
C1865      C1870   1.406   1_565  A
C1866      C1867   1.399       .  A
C1866      H1871   1.084       .  S
C1867      C1868   1.418       .  A
C1867      O1872   1.372       .  S
C1868      C1869   1.410   1_565  A
C1869      C1870   1.405       .  A
C1869      H1873   1.083       .  S
O1872      H1876   0.991       .  S
O1874      H1875   0.992       .  S
C1877      C1878   1.411       .  A
C1877      C1882   1.410       .  A
C1878      C1879   1.409       .  A
C1879      C1880   1.408       .  A
C1879      O1884   1.371       .  S
C1880      C1881   1.401       .  A
C1881      C1882   1.394       .  A
O1884      H1888   0.991       .  S
O1886      H1887   0.992       .  S
C1889      C1890   1.410       .  A
C1889      C1894   1.413   1_565  A
C1890      C1891   1.404       .  A
C1890      H1895   1.083       .  S
C1891      C1892   1.405       .  A
C1891      O1896   1.371       .  S
C1892      C1893   1.403   1_565  A
C1893      C1894   1.398       .  A
C1893      H1897   1.084       .  S
C1894      O1898   1.372       .  S
O1896      H1900   0.992       .  S
O1898      H1899   0.992       .  S
C1901      C1902   1.404       .  A
C1901      C1906   1.416       .  A
C1902      C1903   1.393       .  A
C1902      H1907   1.083   1_565  S
C1903      C1904   1.411       .  A
C1903      O1908   1.372   1_565  S
C1904      C1905   1.404       .  A
C1905      C1906   1.407       .  A
C1905      H1909   1.084       .  S
C1906      O1910   1.372       .  S
O1908      H1912   0.992   1_545  S
O1910      H1911   0.992       .  S
C1913      C1914   1.403       .  A
C1913      C1918   1.414       .  A
C1914      C1915   1.394       .  A
C1914      H1919   1.083       .  S
C1915      C1916   1.412       .  A
C1915      O1920   1.374       .  S
C1916      C1917   1.403       .  A
C1917      C1918   1.405       .  A
C1917      H1921   1.083       .  S
C1918      O1922   1.371   1_556  S
O1920      H1924   0.992       .  S
C1925      C1926   1.410       .  A
C1925      C1930   1.410       .  A
C1926      C1927   1.397       .  A
C1926      H1931   1.083       .  S
C1927      C1928   1.403       .  A
C1927      O1932   1.373       .  S
C1928      C1929   1.403       .  A
C1929      C1930   1.403       .  A
C1929      H1933   1.084       .  S
C1930      O1934   1.369       .  S
O1932      H1936   0.992       .  S
O1934      H1935   0.992       .  S
C1937      C1938   1.400       .  A
C1937      C1942   1.415       .  A
C1938      C1939   1.391       .  A
C1938      H1943   1.083       .  S
C1939      C1940   1.414       .  A
C1939      O1944   1.374       .  S
C1940      C1941   1.403       .  A
C1941      C1942   1.405       .  A
C1941      H1945   1.083       .  S
C1942      O1946   1.371       .  S
O1944      H1948   0.992       .  S
O1946      H1947   0.992       .  S
C1949      C1950   1.409       .  A
C1949      C1954   1.412       .  A
C1950      C1951   1.400       .  A
C1950      H1955   1.083       .  S
C1951      C1952   1.407       .  A
C1951      O1956   1.373       .  S
C1952      C1953   1.404       .  A
C1953      C1954   1.403       .  A
C1953      H1957   1.084       .  S
C1954      O1958   1.369       .  S
O1956      H1960   0.992       .  S
O1958      H1959   0.992       .  S
