geometry optimzed in LAMMPS
_audit_creation_date              2020-11-30 
_audit_creation_method            'lammps2cif' 
_symmetry_space_group_name_H-M    'P1' 
_symmetry_Int_Tables_number       1 
_symmetry_cell_setting            triclinic 
loop_ 
_symmetry_equiv_pos_as_xyz 
  x,y,z 
_cell_length_a                    21.374826287013015 
_cell_length_b                    21.89881115305965 
_cell_length_c                    36.33516080967492 
_cell_angle_alpha                 90.03640556051597 
_cell_angle_beta                  90.05868377491079 
_cell_angle_gamma                 120.07014995112962 
loop_ 
_atom_site_label 
_atom_site_type_symbol 
_atom_site_fract_x 
_atom_site_fract_y 
_atom_site_fract_z 
_atom_site_charge 
C1          C  0.35881287  0.17815072  0.38888731     0.02700
C2          C  0.40081619  0.19645394  0.42031645     0.02700
C3          C  0.36792449  0.18564235  0.09208241     0.02700
C4          C  0.39917021  0.20306823  0.05775681     0.02700
O5          O  0.04913127  0.84302582  0.19436582    -0.72290
O6          O  0.16675113  0.96359466  0.27206981    -0.72330
O7          O  0.17481412  0.96408803  0.19766464    -0.72380
O8          O  0.03975034  0.84182819  0.26860772    -0.72430
O9          O  0.09619825  0.77954895  0.27220400    -0.72360
O10         O  0.23482840  0.90510397  0.20081670    -0.72340
O11         O  0.22504679  0.90303613  0.27591739    -0.72320
O12         O  0.10669791  0.78172927  0.19773194    -0.72380
Ni13       Ni  0.10562988  0.90521474  0.23312926     1.25410
Ni14       Ni  0.16797630  0.84019184  0.23681997     1.25360
C15         C  0.05865079  0.79282071  0.18321934     0.89880
C16         C  0.21507593  0.95320380  0.28676889     0.89820
C17         C  0.22585652  0.95405976  0.18691930     0.89840
C18         C  0.04542716  0.79096503  0.28223686     0.90020
C19         C  0.78093805  0.57987307  0.07125636     0.02700
C20         C  0.81112442  0.62706482  0.10011711     0.02700
C21         C  0.80808645  0.63821477  0.38082411     0.02700
C22         C  0.79378310  0.59880146  0.41251452     0.02700
C23         C  0.81787093  0.18206499  0.09150141     0.02700
C24         C  0.79563362  0.20366585  0.06087817     0.02700
C25         C  0.79083438  0.20573993  0.41576492     0.02700
C26         C  0.80691132  0.18180256  0.38367206     0.02700
O27         O  0.03928677  0.20148774  0.27591971    -0.72290
O28         O  0.16673170  0.20682881  0.20179488    -0.72330
O29         O  0.16555856  0.20445214  0.27629482    -0.72380
O30         O  0.04107994  0.20444734  0.20210693    -0.72430
O31         O  0.09872111  0.32221658  0.20237639    -0.72360
O32         O  0.22416532  0.32212278  0.27871738    -0.72340
O33         O  0.22705746  0.32466810  0.20336246    -0.72320
O34         O  0.09510871  0.31916875  0.27713418    -0.72380
Ni35       Ni  0.10130959  0.20036325  0.23900841     1.25410
Ni36       Ni  0.16362204  0.32655886  0.24046205     1.25360
C37         C  0.04574942  0.25874372  0.28871603     0.89880
C38         C  0.21688283  0.26620062  0.18991761     0.89820
C39         C  0.21369466  0.26258491  0.29062767     0.89840
C40         C  0.04997953  0.26270460  0.18944306     0.90020
O41         O  0.78772923  0.96171608  0.20562856    -0.72290
O42         O  0.77717135  0.83686502  0.28236132    -0.72330
O43         O  0.79073114  0.83989585  0.20806246    -0.72380
O44         O  0.77510558  0.95848103  0.28028279    -0.72430
O45         O  0.65481449  0.89827084  0.27543131    -0.72360
O46         O  0.67063217  0.77916513  0.20194088    -0.72340
O47         O  0.65709368  0.77468792  0.27651460    -0.72320
O48         O  0.66749353  0.90181621  0.20033769    -0.72380
Ni49       Ni  0.78683493  0.90142941  0.24422205     1.25410
Ni50       Ni  0.65809551  0.83635425  0.23834823     1.25360
C51         C  0.72949056  0.95216538  0.19028496     0.89880
C52         C  0.71563209  0.78521307  0.29195328     0.89820
C53         C  0.73355524  0.78997326  0.19329072     0.89840
C54         C  0.71288571  0.94749532  0.29020724     0.90020
C55         C  0.17465971  0.35962037  0.88394826     0.02700
C56         C  0.19099828  0.40216272  0.91446866     0.02700
C57         C  0.18535329  0.80568656  0.87782989     0.02700
C58         C  0.20740973  0.78502343  0.90893531     0.02700
C59         C  0.63231268  0.81589213  0.88817840     0.02700
C60         C  0.59357501  0.79797197  0.92053234     0.02700
C61         C  0.17761201  0.81988235  0.59430908     0.02700
C62         C  0.19497317  0.79861407  0.56224697     0.02700
O63         O  0.20041900  0.03981456  0.70419394    -0.72290
O64         O  0.20411737  0.16521853  0.77930651    -0.72330
O65         O  0.20057134  0.16316578  0.70425811    -0.72380
O66         O  0.20232828  0.04146114  0.77897652    -0.72430
O67         O  0.32290473  0.09756653  0.77732877    -0.72360
O68         O  0.32123170  0.22374935  0.70368511    -0.72340
O69         O  0.32475844  0.22318346  0.77873648    -0.72320
O70         O  0.32104086  0.09926514  0.70244194    -0.72380
Ni71       Ni  0.19765266  0.10045029  0.74169170     1.25410
Ni72       Ni  0.32686943  0.16310499  0.74051833     1.25360
C73         C  0.26016110  0.04902903  0.69100000     0.89880
C74         C  0.26499238  0.21427203  0.79163994     0.89820
C75         C  0.26013874  0.21332819  0.69171185     0.89840
C76         C  0.26244628  0.04891562  0.79026959     0.90020
C77         C  0.17812563  0.37273544  0.60064026     0.02700
C78         C  0.20452551  0.42088548  0.57222243     0.02700
C79         C  0.62381062  0.81128173  0.59229773     0.02700
C80         C  0.58299549  0.78695271  0.56080559     0.02700
O81         O  0.82273783  0.03466314  0.77363021    -0.72290
O82         O  0.94372118  0.16036248  0.69862862    -0.72330
O83         O  0.94666075  0.15876478  0.77273016    -0.72380
O84         O  0.82071218  0.03629023  0.69911980    -0.72430
O85         O  0.75695020  0.09157233  0.69985063    -0.72360
O86         O  0.88555259  0.21667340  0.77524800    -0.72340
O87         O  0.88260869  0.21836008  0.70059707    -0.72320
O88         O  0.75933804  0.09037578  0.77534522    -0.72380
Ni89       Ni  0.88549822  0.09555906  0.73600088     1.25410
Ni90       Ni  0.81858167  0.15622194  0.73783890     1.25360
C91         C  0.77159473  0.04211881  0.78701110     0.89880
C92         C  0.93331278  0.20995766  0.68738192     0.89820
C93         C  0.93714657  0.20730517  0.78635676     0.89840
C94         C  0.76963680  0.04452723  0.68645037     0.90020
O95         O  0.94906162  0.78189634  0.77818952    -0.72290
O96         O  0.82355178  0.78665119  0.70495454    -0.72330
O97         O  0.82506915  0.78339528  0.77901300    -0.72380
O98         O  0.94824799  0.78601373  0.70416329    -0.72430
O99         O  0.88834999  0.66835084  0.70125691    -0.72360
O100        O  0.76290194  0.66564460  0.77869795    -0.72340
O101        O  0.76132803  0.66883010  0.70343713    -0.72320
O102        O  0.88956766  0.66409228  0.77610932    -0.72380
Ni103      Ni  0.88851666  0.78842228  0.74162438     1.25410
Ni104      Ni  0.82310957  0.66220969  0.73982137     1.25360
C105        C  0.94009168  0.72250835  0.78912228     0.89880
C106        C  0.77216840  0.72872845  0.69207611     0.89820
C107        C  0.77523895  0.72502273  0.79200760     0.89840
C108        C  0.93840146  0.72863570  0.68979110     0.90020
C109        C  0.45615912  0.46975092  0.99198292     0.02700
C110        C  0.52094296  0.53236286  0.99474490     0.02700
C111        C  0.98910326  0.47198027  0.98673858     0.02700
C112        C  0.98816349  0.53498913  0.98698270     0.02700
C113        C  0.52414770  0.99491781  0.99346497     0.02700
C114        C  0.45708735  0.99097673  0.99251387     0.02700
C115        C  0.46049595  0.98617329  0.48370606     0.02700
C116        C  0.52351092  0.98279755  0.48020203     0.02700
C117        C  0.98624202  0.52777180  0.49576588     0.02700
C118        C  0.98132412  0.46235633  0.50032893     0.02700
C119        C  0.46265130  0.45924564  0.49527055     0.02700
C120        C  0.52707806  0.52290938  0.49286953     0.02700
C121        C  0.53891153  0.65518451  0.56488143     0.25730
C122        C  0.56184625  0.71651964  0.54360013    -0.22380
C123        C  0.56625257  0.71062344  0.50494204     0.20640
C124        C  0.54987166  0.64649845  0.48873661     0.25670
C125        C  0.53414757  0.58786408  0.51059340    -0.22320
C126        C  0.53232497  0.59421741  0.54901545     0.20570
F127        F  0.52978723  0.54389173  0.57153779    -0.12280
F128        F  0.52210405  0.65326426  0.60096484    -0.14640
F129        F  0.55294462  0.64266472  0.45152966    -0.14650
F130        F  0.58816046  0.76697451  0.48236579    -0.12280
C131        C  0.60672046  0.93419116  0.49803983     0.25730
C132        C  0.53563327  0.92394275  0.49526923    -0.22380
C133        C  0.47949740  0.85704752  0.50717822     0.20640
C134        C  0.49448430  0.81490763  0.53053361     0.25670
C135        C  0.56612580  0.83478938  0.53932923    -0.22320
C136        C  0.62178180  0.89232318  0.52092716     0.20570
F137        F  0.69025767  0.90370117  0.52198826    -0.12280
F138        F  0.66147236  0.97950012  0.47597606    -0.14640
F139        F  0.43919017  0.75284901  0.54307640    -0.14650
F140        F  0.41192394  0.82771762  0.49298443    -0.12280
C141        C  0.61533900  0.90324207  0.63039360     0.25730
C142        C  0.65469692  0.88515498  0.60600203    -0.22380
C143        C  0.72989724  0.92985766  0.60347901     0.20640
C144        C  0.76595731  0.98602904  0.62774033     0.25670
C145        C  0.72790848  0.99909189  0.65518906    -0.22320
C146        C  0.65191283  0.95999163  0.65508891     0.20570
F147        F  0.61383833  0.97166805  0.68125562    -0.12280
F148        F  0.54253226  0.86146984  0.63303071    -0.14640
F149        F  0.83927191  0.02395033  0.62649598    -0.14650
F150        F  0.76980179  0.91447321  0.58026748    -0.12280
C151        C  0.62643202  0.75475566  0.65136497     0.25730
C152        C  0.64897786  0.77040725  0.61445964    -0.22380
C153        C  0.70614896  0.76130039  0.60210292     0.20640
C154        C  0.74415172  0.74314704  0.62712666     0.25670
C155        C  0.72420108  0.73235483  0.66441315    -0.22320
C156        C  0.66364257  0.73568965  0.67608277     0.20570
F157        F  0.64375612  0.72540036  0.71204671    -0.12280
F158        F  0.57023147  0.76121744  0.66386414    -0.14640
F159        F  0.80317454  0.74060174  0.61554738    -0.14650
F160        F  0.72886101  0.77567044  0.56665156    -0.12280
C161        C  0.35389983  0.47688199  0.49817567     0.25730
C162        C  0.40082938  0.45825130  0.51555990    -0.22380
C163        C  0.38888495  0.43864064  0.55256237     0.20640
C164        C  0.33502584  0.44275379  0.57216046     0.25670
C165        C  0.27789204  0.44509474  0.55374634    -0.22320
C166        C  0.29120693  0.46701874  0.51631821     0.20570
F167        F  0.24455844  0.47932720  0.49681673    -0.12280
F168        F  0.36526180  0.49828512  0.46253698    -0.14640
F169        F  0.34466883  0.45300923  0.60884366    -0.14650
F170        F  0.43144707  0.41838518  0.57029858    -0.12280
C171        C  0.10560468  0.38827221  0.52697180     0.25730
C172        C  0.15014562  0.43525720  0.55399835    -0.22380
C173        C  0.13148204  0.48359986  0.56848547     0.20640
C174        C  0.07186813  0.48728687  0.55435335     0.25670
C175        C  0.03375962  0.44771728  0.52283627    -0.22320
C176        C  0.04748553  0.39252728  0.51257302     0.20570
F177        F  0.00259090  0.33799744  0.49073390    -0.12280
F178        F  0.11706073  0.33575324  0.51521675    -0.14640
F179        F  0.04952030  0.52659921  0.57296613    -0.14650
F180        F  0.16968433  0.52588221  0.59703391    -0.12280
C181        C  0.02734420  0.33008487  0.66724512     0.25730
C182        C  0.98223763  0.25822536  0.65923290    -0.22380
C183        C  0.99271728  0.23039994  0.62661062     0.20640
C184        C  0.05167393  0.27197448  0.60405733     0.25670
C185        C  0.10255240  0.34131592  0.61453762    -0.22320
C186        C  0.08760534  0.37143390  0.64508732     0.20570
F187        F  0.13492046  0.43858903  0.65556500    -0.12280
F188        F  0.01777564  0.35805961  0.69863216    -0.14640
F189        F  0.06262082  0.24216361  0.57386248    -0.14650
F190        F  0.94869419  0.16142068  0.61795400    -0.12280
C191        C  0.23207030  0.23899808  0.62850457     0.25730
C192        C  0.25669377  0.26146074  0.66456876    -0.22380
C193        C  0.26639427  0.32625167  0.67662492     0.20640
C194        C  0.24380673  0.36409019  0.65506896     0.25670
C195        C  0.21707181  0.34115163  0.61936587    -0.22320
C196        C  0.21470511  0.27993491  0.60552822     0.20570
F197        F  0.19177535  0.25775946  0.57066585    -0.12280
F198        F  0.22218698  0.17632256  0.61612221    -0.14640
F199        F  0.24897485  0.42404259  0.66887991    -0.14650
F200        F  0.29398902  0.35111832  0.71025557    -0.12280
C201        C  0.33256877  0.87551677  0.56092588     0.25730
C202        C  0.26494062  0.84534543  0.54290855    -0.22380
C203        C  0.26324469  0.85973280  0.50535847     0.20640
C204        C  0.32692694  0.90292744  0.48625536     0.25670
C205        C  0.39432770  0.93504557  0.50435602    -0.22320
C206        C  0.39629201  0.92228274  0.54219637     0.20570
F207        F  0.45997338  0.95429250  0.56081248    -0.12280
F208        F  0.33734304  0.85879063  0.59635850    -0.14640
F209        F  0.32240690  0.91331053  0.44977807    -0.14650
F210        F  0.19936633  0.83265251  0.48704652    -0.12280
C211        C  0.06929657  0.70934648  0.53908287     0.25730
C212        C  0.14247726  0.72962264  0.54387616    -0.22380
C213        C  0.16606225  0.68480862  0.52923784     0.20640
C214        C  0.11680162  0.62065785  0.51217351     0.25670
C215        C  0.04173850  0.59542302  0.51389101    -0.22320
C216        C  0.01911222  0.64127416  0.52791759     0.20570
F217        F  0.94800849  0.62190510  0.52880769    -0.12280
F218        F  0.04645905  0.75661637  0.54249597    -0.14640
F219        F  0.14254030  0.58369263  0.49396297    -0.14650
F220        F  0.23701859  0.70384537  0.53053369    -0.12280
C221        C  0.00283989  0.79021690  0.63381965     0.25730
C222        C  0.98596968  0.73564239  0.65900324    -0.22380
C223        C  0.02442260  0.69905816  0.65789547     0.20640
C224        C  0.08367959  0.72168274  0.63398130     0.25670
C225        C  0.10480395  0.78130793  0.61160388    -0.22320
C226        C  0.06215071  0.81353951  0.61090478     0.20570
F227        F  0.07945080  0.86954887  0.58864077    -0.12280
F228        F  0.96469462  0.82460511  0.63328138    -0.14640
F229        F  0.12389377  0.68953997  0.63492586    -0.14650
F230        F  0.00907770  0.64628162  0.68214510    -0.12280
C231        C  0.24158665  0.88243428  0.65110833     0.25730
C232        C  0.22588939  0.88731296  0.61401490    -0.22380
C233        C  0.23498921  0.95184445  0.60098000     0.20640
C234        C  0.25078682  0.00712948  0.62574535     0.25670
C235        C  0.25822503  0.99849945  0.66353301    -0.22320
C236        C  0.25616566  0.93688879  0.67566876     0.20570
F237        F  0.26171935  0.92661527  0.71193415    -0.12280
F238        F  0.23490824  0.82149867  0.66436810    -0.14640
F239        F  0.25338212  0.06674120  0.61332335    -0.14650
F240        F  0.22066434  0.95843889  0.56526397    -0.12280
C241        C  0.60883108  0.64736855  0.96381548     0.25730
C242        C  0.53787199  0.60131304  0.97669466    -0.22380
C243        C  0.48747922  0.62506786  0.97400294     0.20640
C244        C  0.50422941  0.68628583  0.95396807     0.25670
C245        C  0.57455769  0.73033133  0.94024446    -0.22320
C246        C  0.62759041  0.71267332  0.94870459     0.20570
F247        F  0.69872245  0.76012957  0.94457386    -0.12280
F248        F  0.66193059  0.63083531  0.96627123    -0.14640
F249        F  0.45226199  0.70395912  0.94926529    -0.14650
F250        F  0.42332686  0.59154418  0.99194000    -0.12280
C251        C  0.57890735  0.85592955  0.97737890     0.25730
C252        C  0.57187675  0.84621824  0.93887020    -0.22380
C253        C  0.54493646  0.88322312  0.91892901     0.20640
C254        C  0.53605572  0.93540075  0.93600611     0.25670
C255        C  0.53741365  0.94125719  0.97458431    -0.22320
C256        C  0.55858772  0.90006961  0.99505171     0.20570
F257        F  0.56197381  0.90370851  0.03223919    -0.12280
F258        F  0.60615357  0.82320678  0.99821282    -0.14640
F259        F  0.53173443  0.98321208  0.91432903    -0.14650
F260        F  0.52600396  0.86887268  0.88302667    -0.12280
C261        C  0.73933425  0.80520907  0.87339183     0.25730
C262        C  0.66380549  0.77465047  0.87222980    -0.22380
C263        C  0.62329415  0.71639395  0.84895933     0.20640
C264        C  0.65886199  0.69431605  0.82434715     0.25670
C265        C  0.73484343  0.72989777  0.82351196    -0.22320
C266        C  0.77421753  0.78232396  0.84981546     0.20570
F267        F  0.84761520  0.81616641  0.85044428    -0.12280
F268        F  0.78011129  0.86082223  0.89586712    -0.14640
F269        F  0.61975204  0.64370465  0.79903968    -0.14650
F270        F  0.55023512  0.68578967  0.84753760    -0.12280
C271        C  0.74815250  0.00187736  0.85250771     0.25730
C272        C  0.72544989  0.99241876  0.81556993    -0.22380
C273        C  0.66366966  0.92975509  0.80498264     0.20640
C274        C  0.62845871  0.87476320  0.83017489     0.25670
C275        C  0.65408896  0.88163039  0.86657046    -0.22320
C276        C  0.71201383  0.94707278  0.87806423     0.20570
F277        F  0.73751148  0.95570175  0.91303676    -0.12280
F278        F  0.80801483  0.06237272  0.86318851    -0.14640
F279        F  0.57148987  0.81297592  0.81848232    -0.14650
F280        F  0.64076912  0.91983024  0.76946321    -0.12280
C281        C  0.11882915  0.65308274  0.91163280     0.25730
C282        C  0.15051074  0.72012684  0.92824576    -0.22380
C283        C  0.12347716  0.72654515  0.96240867     0.20640
C284        C  0.07425345  0.66651963  0.98186789     0.25670
C285        C  0.04224158  0.59893715  0.96541693    -0.22320
C286        C  0.06121252  0.59450806  0.92866855     0.20570
F287        F  0.02437900  0.53378662  0.90911866    -0.12280
F288        F  0.14291155  0.64437483  0.87864293    -0.14640
F289        F  0.05818608  0.67491593  0.01698814    -0.14650
F290        F  0.14792963  0.79107771  0.97790436    -0.12280
C291        C  0.33811514  0.89052236  0.91172791     0.25730
C292        C  0.28069321  0.83010243  0.92821894    -0.22380
C293        C  0.29457347  0.81536861  0.96460775     0.20640
C294        C  0.35252577  0.86694248  0.98539115     0.25670
C295        C  0.39855745  0.93343179  0.97028223    -0.22320
C296        C  0.39087357  0.94446215  0.93303926     0.20570
F297        F  0.43333113  0.00859682  0.91734886    -0.12280
F298        F  0.35136318  0.89333813  0.87536723    -0.14640
F299        F  0.36285543  0.85240391  0.02044074    -0.14650
F300        F  0.25537201  0.75050304  0.97987413    -0.12280
C301        C  0.21008683  0.93031474  0.87356917     0.25730
C302        C  0.22335304  0.87722880  0.86063697    -0.22380
C303        C  0.25874425  0.88731981  0.82655776     0.20640
C304        C  0.28091644  0.94902266  0.80634002     0.25670
C305        C  0.26012669  0.99757635  0.81722321    -0.22320
C306        C  0.22572171  0.98859559  0.85134707     0.20570
F307        F  0.20488232  0.03486632  0.86248515    -0.12280
F308        F  0.17722126  0.92322476  0.90647501    -0.14640
F309        F  0.31915967  0.95935770  0.77499467    -0.14650
F310        F  0.27402781  0.83826211  0.81342336    -0.12280
C311        C  0.10463659  0.72705467  0.82758481     0.25730
C312        C  0.11207513  0.76178286  0.86130383    -0.22380
C313        C  0.05414222  0.76903308  0.87423201     0.20640
C314        C  0.99441510  0.75081290  0.85159959     0.25670
C315        C  0.99087185  0.72299163  0.81638123    -0.22320
C316        C  0.04415676  0.70751522  0.80530941     0.20570
F317        F  0.04115883  0.68000613  0.77141721    -0.12280
F318        F  0.15807715  0.71628161  0.81505852    -0.14640
F319        F  0.94225994  0.76447839  0.86306477    -0.14650
F320        F  0.05800701  0.79901875  0.90745802    -0.12280
C321        C  0.25955636  0.40833603  0.97154858     0.25730
C322        C  0.26103183  0.42579589  0.93428020    -0.22380
C323        C  0.32857229  0.46418614  0.91656335     0.20640
C324        C  0.39247807  0.47875599  0.93478519     0.25670
C325        C  0.39068827  0.46057477  0.97206301    -0.22320
C326        C  0.32352704  0.42653592  0.99034195     0.20570
F327        F  0.31966220  0.40950397  0.02652326    -0.12280
F328        F  0.19568045  0.37202888  0.98967010    -0.14640
F329        F  0.45559141  0.50913197  0.91578636    -0.14650
F330        F  0.33285600  0.48791101  0.88170080    -0.12280
C331        C  0.16509552  0.48967170  0.94762008     0.25730
C332        C  0.13900374  0.42259922  0.93111114    -0.22380
C333        C  0.06421398  0.37462176  0.93356896     0.20640
C334        C  0.01667155  0.39626870  0.94566532     0.25670
C335        C  0.04239315  0.46098960  0.96428952    -0.22320
C336        C  0.11799503  0.50648299  0.96624964     0.20570
F337        F  0.14677461  0.56579406  0.98718373    -0.12280
F338        F  0.23680665  0.53792707  0.94751775    -0.14640
F339        F  0.94461024  0.34976237  0.94298275    -0.14650
F340        F  0.03685979  0.30451900  0.92909840    -0.12280
C341        C  0.08487266  0.36180381  0.83911386     0.25730
C342        C  0.10352266  0.32516728  0.86460447    -0.22380
C343        C  0.05989470  0.25131085  0.86708956     0.20640
C344        C  0.00210199  0.21446528  0.84335058     0.25670
C345        C  0.98649935  0.25003662  0.81608599    -0.22320
C346        C  0.02632134  0.32426081  0.81486713     0.20570
F347        F  0.01254043  0.35966088  0.78840379    -0.12280
F348        F  0.12615282  0.43295887  0.83604469    -0.14640
F349        F  0.96320795  0.14296869  0.84584028    -0.14650
F350        F  0.07322151  0.21431652  0.89274473    -0.12280
C351        C  0.22622395  0.27864920  0.88056859     0.25730
C352        C  0.22521982  0.33874805  0.86762884    -0.22380
C353        C  0.25434047  0.36548774  0.83279949     0.20640
C354        C  0.27680000  0.32892819  0.80998941     0.25670
C355        C  0.26511194  0.26239004  0.82018940    -0.22320
C356        C  0.24307022  0.23892024  0.85636963     0.20570
F357        F  0.23420182  0.17598286  0.86754725    -0.12280
F358        F  0.20350544  0.25445285  0.91517679    -0.14640
F359        F  0.30464639  0.35608436  0.77673897    -0.14650
F360        F  0.25507292  0.42383174  0.81958473    -0.12280
C361        C  0.81236846  0.30134674  0.46340886     0.25730
C362        C  0.84028912  0.27822945  0.43430776    -0.22380
C363        C  0.91504074  0.32529257  0.42607489     0.20640
C364        C  0.95349836  0.39189550  0.44253179     0.25670
C365        C  0.92921902  0.40382055  0.47592015    -0.22320
C366        C  0.85914156  0.35505267  0.48732054     0.20570
F367        F  0.83621577  0.35784149  0.52176717    -0.12280
F368        F  0.74056883  0.27118312  0.47028532    -0.14640
F369        F  0.02266143  0.43648729  0.43172575    -0.14650
F370        F  0.95806738  0.30542283  0.40935096    -0.12280
C371        C  0.71474785  0.13861930  0.47190664     0.25730
C372        C  0.71925146  0.15583369  0.43407014    -0.22380
C373        C  0.65511755  0.12064785  0.41329373     0.20640
C374        C  0.59679123  0.05904747  0.42683360     0.25670
C375        C  0.58888846  0.04656405  0.46480760    -0.22320
C376        C  0.64763647  0.09103239  0.48774773     0.20570
F377        F  0.64325076  0.08028444  0.52468151    -0.12280
F378        F  0.77470811  0.16771533  0.49349622    -0.14640
F379        F  0.55355504  0.00862622  0.40251719    -0.14650
F380        F  0.65056309  0.14239122  0.37900662    -0.12280
C381        C  0.73126537  0.11243910  0.32993943     0.25730
C382        C  0.75783421  0.11234452  0.36542155    -0.22380
C383        C  0.75177970  0.04929791  0.37877539     0.20640
C384        C  0.73043747  0.99164913  0.35498248     0.25670
C385        C  0.71049501  0.99473819  0.31844548    -0.22320
C386        C  0.70526251  0.05312443  0.30731153     0.20570
F387        F  0.68037485  0.05502330  0.27338015    -0.12280
F388        F  0.73425353  0.17163628  0.31646123    -0.14640
F389        F  0.73364026  0.93465822  0.36685162    -0.14650
F390        F  0.77309124  0.04590915  0.41354023    -0.12280
C391        C  0.92127758  0.18519024  0.36907770     0.25730
C392        C  0.87709536  0.21528682  0.36455189    -0.22380
C393        C  0.89554415  0.26838110  0.33801209     0.20640
C394        C  0.95496436  0.28760842  0.31475878     0.25670
C395        C  0.99481374  0.25258330  0.31747300    -0.22320
C396        C  0.97883290  0.20302723  0.34552589     0.20570
F397        F  0.01724438  0.16940428  0.34918703    -0.12280
F398        F  0.90769037  0.13718118  0.39596990    -0.14640
F399        F  0.96998570  0.33607539  0.28791131    -0.14650
F400        F  0.85488390  0.29963107  0.33398442    -0.12280
C401        C  0.66155558  0.11210061  0.06469028     0.25730
C402        C  0.72283972  0.15591045  0.04337728    -0.22380
C403        C  0.71483349  0.14998947  0.00464029     0.20640
C404        C  0.64778086  0.10247640  0.98869614     0.24590
C405        C  0.59032816  0.05366075  0.01078377    -0.22320
C406        C  0.60266094  0.05431127  0.04868004     0.20570
F407        F  0.55902785  0.99861974  0.07041099    -0.12280
F408        F  0.65725685  0.12517140  0.10074370    -0.14640
F409        F  0.64085856  0.10060431  0.95153107    -0.14650
F410        F  0.77175748  0.18891216  0.98208047    -0.12280
C411        C  0.86177614  0.37859339  0.00910952     0.25730
C412        C  0.93758959  0.40741378  0.00892151    -0.22380
C413        C  0.96513743  0.36759843  0.02567520     0.20640
C414        C  0.91892435  0.29915616  0.03765413     0.25670
C415        C  0.84475340  0.27425049  0.04279795    -0.22320
C416        C  0.81689771  0.31595229  0.02851869     0.20570
F417        F  0.74545620  0.29426333  0.03148486    -0.12280
F418        F  0.83055282  0.40928471  0.98977010    -0.14640
F419        F  0.94663450  0.25574394  0.04054650    -0.14650
F420        F  0.03740272  0.39206949  0.02719890    -0.12280
C421        C  0.90973386  0.27755311  0.13293449     0.25730
C422        C  0.89115451  0.22174195  0.10805919    -0.22380
C423        C  0.93427756  0.19009875  0.10626179     0.20640
C424        C  0.98942960  0.20788089  0.13133889     0.25670
C425        C  0.00372750  0.25850388  0.15860262    -0.22320
C426        C  0.96621171  0.29603467  0.15825838     0.20570
F427        F  0.97908334  0.34498024  0.18458415    -0.12280
F428        F  0.86904330  0.30910967  0.13500552    -0.14640
F429        F  0.02533331  0.17138876  0.13069307    -0.14650
F430        F  0.91969932  0.13815654  0.08151521    -0.12280
C431        C  0.76584245  0.05038448  0.09976466     0.25730
C432        C  0.77345137  0.11473508  0.11212767    -0.22380
C433        C  0.75494829  0.11963567  0.14871437     0.20640
C434        C  0.73552881  0.06417920  0.17316916     0.25670
C435        C  0.73469020  0.00272236  0.16198589    -0.22320
C436        C  0.74760558  0.99496790  0.12479068     0.20570
F437        F  0.74694140  0.93575692  0.11327781    -0.12280
F438        F  0.78184238  0.04342588  0.06442268    -0.14640
F439        F  0.72268089  0.07275773  0.20861771    -0.14650
F440        F  0.75921325  0.18001861  0.16125147    -0.12280
C441        C  0.65552288  0.53512287  0.41568813     0.25730
C442        C  0.72376028  0.57726733  0.43243262    -0.22380
C443        C  0.72586017  0.59719446  0.46934521     0.20640
C444        C  0.66201263  0.57562239  0.48904645     0.25670
C445        C  0.59363733  0.53632765  0.47196253    -0.22320
C446        C  0.59139926  0.51769892  0.43466901     0.20570
F447        F  0.52738472  0.48322472  0.41646906    -0.12280
F448        F  0.65070267  0.50963183  0.38117306    -0.14640
F449        F  0.66730253  0.59386420  0.52510693    -0.14650
F450        F  0.79027478  0.63739272  0.48655658    -0.12280
C451        C  0.81598034  0.51620525  0.45265990     0.25730
C452        C  0.84505003  0.57714083  0.43009803    -0.22380
C453        C  0.92170873  0.61823021  0.42888406     0.20640
C454        C  0.96530661  0.59456832  0.44503969     0.25670
C455        C  0.93602631  0.53772116  0.46988817    -0.22320
C456        C  0.86070826  0.50235093  0.47509324     0.20570
F457        F  0.83055750  0.46187692  0.50510583    -0.12280
F458        F  0.74351859  0.47259648  0.45591053    -0.14640
F459        F  0.03801365  0.63371900  0.44028779    -0.14650
F460        F  0.95660934  0.68584916  0.41752068    -0.12280
C461        C  0.72395421  0.63206795  0.33122800     0.25730
C462        C  0.75700367  0.65952150  0.36545760    -0.22380
C463        C  0.75809431  0.72017263  0.37905743     0.20640
C464        C  0.74054164  0.76026151  0.35572086     0.25670
C465        C  0.71404180  0.73603022  0.32012142    -0.22320
C466        C  0.69928120  0.66851443  0.30958010     0.20570
F467        F  0.66719351  0.64091614  0.27682654    -0.12280
F468        F  0.72099192  0.57302677  0.31747599    -0.14640
F469        F  0.75383968  0.82467800  0.36698277    -0.14650
F470        F  0.78412385  0.74488478  0.41325686    -0.12280
C471        C  0.68158098  0.51231382  0.02262169     0.25730
C472        C  0.70396994  0.55153970  0.05609144    -0.22380
C473        C  0.65247591  0.56594891  0.07240321     0.20640
C474        C  0.59773625  0.56563464  0.05133637     0.25670
C475        C  0.58115663  0.53419543  0.01657330    -0.22320
C476        C  0.62066406  0.50346880  0.00336657     0.20570
F477        F  0.60256632  0.46823036  0.97080966    -0.12280
F478        F  0.71665986  0.48035654  0.00855279    -0.14640
F479        F  0.55613220  0.58992413  0.06633981    -0.14650
F480        F  0.64575709  0.56800815  0.10929595    -0.12280
C481        C  0.85477271  0.59535843  0.01431018     0.25730
C482        C  0.83213754  0.56572983  0.04947386    -0.22380
C483        C  0.86138917  0.52617762  0.06429991     0.20640
C484        C  0.91678455  0.52205285  0.04603203     0.25670
C485        C  0.93415374  0.54508364  0.00923440    -0.22320
C486        C  0.90147409  0.58148074  0.99360227     0.20570
F487        F  0.91540845  0.60465872  0.95827633    -0.12280
F488        F  0.82914730  0.63542235  0.99941113    -0.14640
F489        F  0.95317139  0.49570275  0.06456957    -0.14650
F490        F  0.83553956  0.49037873  0.09618713    -0.12280
C491        C  0.76824480  0.71509840  0.10670154     0.25730
C492        C  0.77613646  0.65983085  0.12151051    -0.22380
C493        C  0.76272911  0.64432089  0.15921830     0.20640
C494        C  0.74724938  0.68606396  0.18205743     0.25670
C495        C  0.74119948  0.74209103  0.16766361    -0.22320
C496        C  0.75017504  0.75556941  0.12967338     0.20570
F497        F  0.74500236  0.80991272  0.11520253    -0.12280
F498        F  0.78014225  0.73107467  0.07036814    -0.14640
F499        F  0.74211170  0.67402809  0.21873475    -0.14650
F500        F  0.76575560  0.58923405  0.17422165    -0.12280
C501        C  0.97924598  0.78332705  0.33899032     0.25730
C502        C  0.99328891  0.74796492  0.31097122    -0.22380
C503        C  0.95207666  0.67380763  0.30903488     0.20640
C504        C  0.89425042  0.63617968  0.33361245     0.25670
C505        C  0.87795220  0.67249041  0.36043140    -0.22320
C506        C  0.92251011  0.74632543  0.36329550     0.20570
F507        F  0.91207265  0.78292494  0.39034568    -0.12280
F508        F  0.01978737  0.85462435  0.34230582    -0.14640
F509        F  0.85187281  0.56523546  0.32993305    -0.14650
F510        F  0.96434480  0.63858630  0.28184962    -0.12280
C511        C  0.99516252  0.77290886  0.12312711     0.25730
C512        C  0.01036221  0.74530412  0.15453213    -0.22380
C513        C  0.96970380  0.67275824  0.16153609     0.20640
C514        C  0.90827222  0.63016805  0.14048199     0.25670
C515        C  0.88866584  0.65912747  0.11103430    -0.22320
C516        C  0.93608801  0.72951147  0.10081861     0.20570
F517        F  0.91987480  0.75853227  0.07199241    -0.12280
F518        F  0.03391766  0.84296123  0.11572182    -0.14640
F519        F  0.86341333  0.56340779  0.15218518    -0.14650
F520        F  0.98347306  0.64500591  0.19179463    -0.12280
C521        C  0.45042977  0.33550260  0.06065650     0.25730
C522        C  0.42071241  0.27309708  0.03956755    -0.22380
C523        C  0.41202659  0.27949502  0.00132296     0.20640
C524        C  0.42611943  0.34381646  0.98614967     0.25670
C525        C  0.44701830  0.40310885  0.00858526    -0.22320
C526        C  0.45632883  0.39717839  0.04637630     0.20570
F527        F  0.46834482  0.44979990  0.06998832    -0.12280
F528        F  0.47738498  0.33837887  0.09467683    -0.14640
F529        F  0.41778141  0.34769724  0.94931357    -0.14650
F530        F  0.39100937  0.22500205  0.97774012    -0.12280
C531        C  0.38474515  0.05696026  0.99514580     0.25730
C532        C  0.43968499  0.04483217  0.00954616    -0.22380
C533        C  0.47092404  0.07974256  0.04290265     0.20640
C534        C  0.46773773  0.13903306  0.05393155     0.25670
C535        C  0.41540876  0.15205449  0.03893646    -0.22320
C536        C  0.36961078  0.10595842  0.01162012     0.20570
F537        F  0.30830537  0.10602893  0.00179237    -0.12280
F538        F  0.34080308  0.01864465  0.96713116    -0.14640
F539        F  0.50696727  0.17628813  0.08357906    -0.14650
F540        F  0.48139046  0.04466256  0.07024972    -0.12280
C541        C  0.24048638  0.00122131  0.12390013     0.25730
C542        C  0.27258944  0.99985989  0.15735585    -0.22380
C543        C  0.34395504  0.05235123  0.16471877     0.20640
C544        C  0.37968899  0.10980850  0.14077175     0.25670
C545        C  0.34400677  0.11545394  0.10938731    -0.22320
C546        C  0.27592641  0.05837282  0.10001481     0.20570
F547        F  0.24053768  0.06103255  0.06960757    -0.12280
F548        F  0.17204916  0.94992690  0.11588407    -0.14640
F549        F  0.44708028  0.16199913  0.14972570    -0.14650
F550        F  0.37627886  0.05168349  0.19675463    -0.12280
C551        C  0.27214619  0.21749232  0.10170928     0.25730
C552        C  0.33974379  0.22657577  0.11181617    -0.22380
C553        C  0.37096307  0.26031594  0.14551987     0.20640
C554        C  0.33368207  0.28083861  0.16935401     0.25670
C555        C  0.26351454  0.26525383  0.16070364    -0.22320
C556        C  0.23369868  0.23544190  0.12632912     0.20570
F557        F  0.16548180  0.21956074  0.11762269    -0.12280
F558        F  0.24047168  0.18522025  0.06953330    -0.14640
F559        F  0.36326422  0.30967046  0.20247128    -0.14650
F560        F  0.43652638  0.27117914  0.15619913    -0.12280
C561        C  0.37633611  0.33725911  0.46864907     0.25730
C562        C  0.44799059  0.38945711  0.47835546    -0.22380
C563        C  0.50227567  0.37100550  0.47328382     0.20640
C564        C  0.48806758  0.31069973  0.45288422     0.25670
C565        C  0.41740350  0.26231441  0.44115166    -0.22320
C566        C  0.36151845  0.27375353  0.45247094     0.20570
F567        F  0.29153946  0.22198745  0.44939979    -0.12280
F568        F  0.31847512  0.34518657  0.47524674    -0.14640
F569        F  0.54308568  0.29833505  0.44574584    -0.14650
F570        F  0.56790874  0.40824956  0.48960883    -0.12280
C571        C  0.44908762  0.05195417  0.42947593     0.25730
C572        C  0.45411849  0.04591845  0.46762733    -0.22380
C573        C  0.44313573  0.09140191  0.49057296     0.20640
C574        C  0.42555016  0.13985280  0.47542188     0.25670
C575        C  0.42595847  0.14903540  0.43680346    -0.22320
C576        C  0.44612704  0.10897291  0.41463949     0.20570
F577        F  0.46303773  0.12419094  0.37863890    -0.12280
F578        F  0.43883012  0.99891458  0.40659598    -0.14640
F579        F  0.40617981  0.17596283  0.49872419    -0.14650
F580        F  0.44438455  0.08548276  0.52771904    -0.12280
C581        C  0.33002901  0.29618566  0.32422593     0.25730
C582        C  0.25407693  0.25803336  0.32237796    -0.22380
C583        C  0.21519945  0.20647069  0.34901470     0.20640
C584        C  0.25086188  0.18755794  0.37443450     0.25670
C585        C  0.32660930  0.21964690  0.37389017    -0.22320
C586        C  0.36630357  0.27711926  0.35009415     0.20570
F587        F  0.43951898  0.30924767  0.34915237    -0.12280
F588        F  0.36879225  0.34637060  0.29874710    -0.14640
F589        F  0.21065211  0.13251697  0.39724313    -0.14650
F590        F  0.14188038  0.16994576  0.34853765    -0.12280
C591        C  0.35888800  0.12037694  0.32977111     0.25730
C592        C  0.33555114  0.11274527  0.36660422    -0.22380
C593        C  0.27850311  0.04694906  0.37825715     0.20640
C594        C  0.24117939  0.99237490  0.35258466     0.25670
C595        C  0.26178185  0.00262639  0.31535070    -0.22320
C596        C  0.32245286  0.06581821  0.30448728     0.20570
F597        F  0.34329473  0.07654972  0.26869559    -0.12280
F598        F  0.41515020  0.18235578  0.31787243    -0.14640
F599        F  0.18213960  0.93149258  0.36349441    -0.14650
F600        F  0.25507023  0.03773534  0.41361456    -0.12280
loop_ 
_geom_bond_atom_site_label_1 
_geom_bond_atom_site_label_2 
_geom_bond_distance 
_geom_bond_site_symmetry_2 
_ccdc_geom_bond_type 
C1            C2   1.381       .  D
C1          C585   1.491       .  S
C1          C592   1.496       .  S
C2          C565   1.505       .  S
C2          C575   1.512       .  S
C3            C4   1.376       .  D
C3          C545   1.495       .  S
C3          C552   1.491       .  S
C4          C522   1.515       .  S
C4          C535   1.491       .  S
O5          Ni13   1.909       .  S
O5           C15   1.280       .  A
O6          Ni13   1.914       .  S
O6           C16   1.280       .  A
O7          Ni13   1.899       .  S
O7           C17   1.277       .  A
O8          Ni13   1.902       .  S
O8           C18   1.279       .  A
O9          Ni14   1.933       .  S
O9           C18   1.283       .  A
O10         Ni14   1.935       .  S
O10          C17   1.284       .  A
O11         Ni14   1.927       .  S
O11          C16   1.281       .  A
O12         Ni14   1.920       .  S
O12          C15   1.281       .  A
Ni13        Ni14   2.392       .  S
C15         C512   1.468       .  S
C16         C595   1.470   1_565  S
C17         C542   1.469       .  S
C18         C502   1.473   1_455  S
C19          C20   1.383       .  D
C19         C472   1.539       .  S
C19         C482   1.504       .  S
C20         C492   1.489       .  S
C20         C515   1.493       .  S
C21          C22   1.379       .  D
C21         C462   1.494       .  S
C21         C505   1.491       .  S
C22         C442   1.511       .  S
C22         C452   1.534       .  S
C23          C24   1.383       .  D
C23         C422   1.485       .  S
C23         C432   1.496       .  S
C24         C402   1.512       .  S
C24         C415   1.516       .  S
C25          C26   1.390       .  D
C25         C362   1.551       .  S
C25         C372   1.518       .  S
C26         C382   1.501       .  S
C26         C392   1.474       .  S
O27         Ni35   1.896       .  S
O27          C37   1.278       .  A
O28         Ni35   1.900       .  S
O28          C38   1.277       .  A
O29         Ni35   1.898       .  S
O29          C39   1.279       .  A
O30         Ni35   1.891       .  S
O30          C40   1.278       .  A
O31         Ni36   1.927       .  S
O31          C40   1.282       .  A
O32         Ni36   1.934       .  S
O32          C39   1.283       .  A
O33         Ni36   1.928       .  S
O33          C38   1.283       .  A
O34         Ni36   1.927       .  S
O34          C37   1.282       .  A
Ni35        Ni36   2.393       .  S
C37         C395   1.467   1_455  S
C38         C555   1.464       .  S
C39         C582   1.473       .  S
C40         C425   1.466       .  S
O41         Ni49   1.920       .  S
O41          C51   1.281       .  A
O42         Ni49   1.916       .  S
O42          C52   1.281       .  A
O43         Ni49   1.913       .  S
O43          C53   1.279       .  A
O44         Ni49   1.911       .  S
O44          C54   1.279       .  A
O45         Ni50   1.937       .  S
O45          C54   1.284       .  A
O46         Ni50   1.930       .  S
O46          C53   1.283       .  A
O47         Ni50   1.929       .  S
O47          C52   1.282       .  A
O48         Ni50   1.928       .  S
O48          C51   1.282       .  A
Ni49        Ni50   2.391       .  S
C51         C435   1.474   1_565  S
C52         C465   1.474       .  S
C53         C495   1.471       .  S
C54         C385   1.476       .  S
C55          C56   1.375       .  D
C55         C342   1.491       .  S
C55         C352   1.491       .  S
C56         C322   1.499       .  S
C56         C332   1.517       .  S
C57          C58   1.385       .  D
C57         C302   1.494       .  S
C57         C312   1.492       .  S
C58         C282   1.504       .  S
C58         C292   1.538       .  S
C59          C60   1.378       .  D
C59         C262   1.488       .  S
C59         C275   1.495       .  S
C60         C245   1.507       .  S
C60         C252   1.505       .  S
C61          C62   1.373       .  D
C61         C225   1.489       .  S
C61         C232   1.493       .  S
C62         C202   1.499       .  S
C62         C212   1.512       .  S
O63         Ni71   1.923       .  S
O63          C73   1.282       .  A
O64         Ni71   1.923       .  S
O64          C74   1.283       .  A
O65         Ni71   1.912       .  S
O65          C75   1.279       .  A
O66         Ni71   1.909       .  S
O66          C76   1.279       .  A
O67         Ni72   1.933       .  S
O67          C76   1.284       .  A
O68         Ni72   1.932       .  S
O68          C75   1.283       .  A
O69         Ni72   1.928       .  S
O69          C74   1.281       .  A
O70         Ni72   1.925       .  S
O70          C73   1.281       .  A
Ni71        Ni72   2.391       .  S
C73         C235   1.475   1_545  S
C74         C355   1.477       .  S
C75         C192   1.472       .  S
C76         C305   1.474   1_545  S
C77          C78   1.379       .  D
C77         C185   1.492       .  S
C77         C195   1.487       .  S
C78         C165   1.536       .  S
C78         C172   1.501       .  S
C79          C80   1.373       .  D
C79         C142   1.493       .  S
C79         C152   1.491       .  S
C80         C122   1.508       .  S
C80         C135   1.488       .  S
O81         Ni89   1.913       .  S
O81          C91   1.280       .  A
O82         Ni89   1.909       .  S
O82          C92   1.280       .  A
O83         Ni89   1.894       .  S
O83          C93   1.278       .  A
O84         Ni89   1.895       .  S
O84          C94   1.278       .  A
O85         Ni90   1.942       .  S
O85          C94   1.285       .  A
O86         Ni90   1.935       .  S
O86          C93   1.283       .  A
O87         Ni90   1.922       .  S
O87          C92   1.281       .  A
O88         Ni90   1.928       .  S
O88          C91   1.282       .  A
Ni89        Ni90   2.392       .  S
C91         C272   1.470   1_545  S
C92         C182   1.467       .  S
C93         C345   1.471       .  S
C94         C145   1.477   1_545  S
O95        Ni103   1.909       .  S
O95         C105   1.279       .  A
O96        Ni103   1.910       .  S
O96         C106   1.279       .  A
O97        Ni103   1.884       .  S
O97         C107   1.276       .  A
O98        Ni103   1.886       .  S
O98         C108   1.277       .  A
O99        Ni104   1.935       .  S
O99         C108   1.283       .  A
O100       Ni104   1.939       .  S
O100        C107   1.284       .  A
O101       Ni104   1.924       .  S
O101        C106   1.281       .  A
O102       Ni104   1.922       .  S
O102        C105   1.281       .  A
Ni103      Ni104   2.393       .  S
C105        C315   1.465       .  S
C106        C155   1.465       .  S
C107        C265   1.470       .  S
C108        C222   1.468       .  S
C109        C110   1.380       .  D
C109        C325   1.496       .  S
C109        C525   1.499   1_556  S
C110        C242   1.515       .  S
C110        C475   1.494   1_556  S
C111        C112   1.390       .  D
C111        C335   1.516   1_655  S
C111        C412   1.518   1_556  S
C112        C285   1.514   1_655  S
C112        C485   1.514   1_556  S
C113        C114   1.393       .  D
C113        C255   1.505       .  S
C113        C405   1.492   1_566  S
C114        C295   1.491       .  S
C114        C532   1.533   1_566  S
C115        C116   1.391       .  D
C115        C205   1.494       .  S
C115        C572   1.500   1_565  S
C116        C132   1.537       .  S
C116        C375   1.504   1_565  S
C117        C118   1.393       .  D
C117        C215   1.507   1_655  S
C117        C455   1.522       .  S
C118        C175   1.545   1_655  S
C118        C365   1.495       .  S
C119        C120   1.387       .  D
C119        C162   1.504       .  S
C119        C562   1.526       .  S
C120        C125   1.498       .  S
C120        C445   1.507       .  S
C121        C122   1.409       .  A
C121        C126   1.395       .  A
C121        F128   1.355       .  S
C122        C123   1.418       .  A
C123        C124   1.395       .  A
C123        F130   1.356       .  S
C124        C125   1.401       .  A
C124        F129   1.358       .  S
C125        C126   1.405       .  A
C126        F127   1.352       .  S
C131        C132   1.424       .  A
C131        C136   1.390       .  A
C131        F138   1.355       .  S
C132        C133   1.419       .  A
C133        C134   1.404       .  A
C133        F140   1.354       .  S
C134        C135   1.403       .  A
C134        F139   1.358       .  S
C135        C136   1.397       .  A
C136        F137   1.357       .  S
C141        C142   1.409       .  A
C141        C146   1.409       .  A
C141        F148   1.357       .  S
C142        C143   1.405       .  A
C143        C144   1.390       .  A
C143        F150   1.357       .  S
C144        C145   1.404       .  A
C144        F149   1.358   1_565  S
C145        C146   1.406       .  A
C146        F147   1.357       .  S
C151        C152   1.409       .  A
C151        C156   1.395       .  A
C151        F158   1.357       .  S
C152        C153   1.407       .  A
C153        C154   1.403       .  A
C153        F160   1.357       .  S
C154        C155   1.405       .  A
C154        F159   1.358       .  S
C155        C156   1.399       .  A
C156        F157   1.358       .  S
C161        C162   1.407       .  A
C161        C166   1.410       .  A
C161        F168   1.358       .  S
C162        C163   1.396       .  A
C163        C164   1.395       .  A
C163        F170   1.358       .  S
C164        C165   1.415       .  A
C164        F169   1.350       .  S
C165        C166   1.423       .  A
C166        F167   1.355       .  S
C171        C172   1.394       .  A
C171        C176   1.393       .  A
C171        F178   1.359       .  S
C172        C173   1.407       .  A
C173        C174   1.413       .  A
C173        F180   1.356       .  S
C174        C175   1.420       .  A
C174        F179   1.356       .  S
C175        C176   1.429       .  A
C176        F177   1.351       .  S
C181        C182   1.403   1_455  A
C181        C186   1.401       .  A
C181        F188   1.358       .  S
C182        C183   1.401       .  A
C183        C184   1.393   1_655  A
C183        F190   1.357       .  S
C184        C185   1.406       .  A
C184        F189   1.355       .  S
C185        C186   1.407       .  A
C186        F187   1.356       .  S
C191        C192   1.405       .  A
C191        C196   1.404       .  A
C191        F198   1.356       .  S
C192        C193   1.397       .  A
C193        C194   1.391       .  A
C193        F200   1.347       .  S
C194        C195   1.404       .  A
C194        F199   1.357       .  S
C195        C196   1.408       .  A
C196        F197   1.356       .  S
C201        C202   1.412       .  A
C201        C206   1.404       .  A
C201        F208   1.356       .  S
C202        C203   1.405       .  A
C203        C204   1.394       .  A
C203        F210   1.358       .  S
C204        C205   1.409       .  A
C204        F209   1.356       .  S
C205        C206   1.408       .  A
C206        F207   1.358       .  S
C211        C212   1.406       .  A
C211        C216   1.390       .  A
C211        F218   1.353       .  S
C212        C213   1.413       .  A
C213        C214   1.408       .  A
C213        F220   1.357       .  S
C214        C215   1.413       .  A
C214        F219   1.357       .  S
C215        C216   1.410       .  A
C216        F217   1.358   1_455  S
C221        C222   1.402   1_455  A
C221        C226   1.384       .  A
C221        F228   1.359   1_455  S
C222        C223   1.407   1_655  A
C223        C224   1.407       .  A
C223        F230   1.357       .  S
C224        C225   1.408       .  A
C224        F229   1.357       .  S
C225        C226   1.405       .  A
C226        F227   1.358       .  S
C231        C232   1.406       .  A
C231        C236   1.393       .  A
C231        F238   1.358       .  S
C232        C233   1.409       .  A
C233        C234   1.406   1_565  A
C233        F240   1.357       .  S
C234        C235   1.406   1_545  A
C234        F239   1.356       .  S
C235        C236   1.399       .  A
C236        F237   1.352       .  S
C241        C242   1.416       .  A
C241        C246   1.391       .  A
C241        F248   1.356       .  S
C242        C243   1.415       .  A
C243        C244   1.406       .  A
C243        F250   1.356       .  S
C244        C245   1.410       .  A
C244        F249   1.358       .  S
C245        C246   1.403       .  A
C246        F247   1.353       .  S
C251        C252   1.412       .  A
C251        C256   1.399       .  A
C251        F258   1.358       .  S
C252        C253   1.407       .  A
C253        C254   1.394       .  A
C253        F260   1.355       .  S
C254        C255   1.406       .  A
C254        F259   1.350       .  S
C255        C256   1.407       .  A
C256        F257   1.353   1_556  S
C261        C262   1.405       .  A
C261        C266   1.384       .  A
C261        F268   1.358       .  S
C262        C263   1.408       .  A
C263        C264   1.407       .  A
C263        F270   1.357       .  S
C264        C265   1.406       .  A
C264        F269   1.357       .  S
C265        C266   1.403       .  A
C266        F267   1.359       .  S
C271        C272   1.406   1_545  A
C271        C276   1.405   1_545  A
C271        F278   1.357       .  S
C272        C273   1.399       .  A
C273        C274   1.396       .  A
C273        F280   1.358       .  S
C274        C275   1.410       .  A
C274        F279   1.357       .  S
C275        C276   1.408       .  A
C276        F277   1.357       .  S
C281        C282   1.407       .  A
C281        C286   1.402       .  A
C281        F288   1.356       .  S
C282        C283   1.406       .  A
C283        C284   1.397       .  A
C283        F290   1.358       .  S
C284        C285   1.414       .  A
C284        F289   1.358   1_556  S
C285        C286   1.413       .  A
C286        F287   1.357       .  S
C291        C292   1.411       .  A
C291        C296   1.389       .  A
C291        F298   1.346       .  S
C292        C293   1.427       .  A
C293        C294   1.405       .  A
C293        F300   1.355       .  S
C294        C295   1.399       .  A
C294        F299   1.357   1_556  S
C295        C296   1.399       .  A
C296        F297   1.359   1_565  S
C301        C302   1.408       .  A
C301        C306   1.402       .  A
C301        F308   1.356       .  S
C302        C303   1.410       .  A
C303        C304   1.397       .  A
C303        F310   1.356       .  S
C304        C305   1.399       .  A
C304        F309   1.354       .  S
C305        C306   1.405       .  A
C306        F307   1.357   1_565  S
C311        C312   1.408       .  A
C311        C316   1.397       .  A
C311        F318   1.356       .  S
C312        C313   1.406       .  A
C313        C314   1.397   1_455  A
C313        F320   1.356       .  S
C314        C315   1.403       .  A
C314        F319   1.357       .  S
C315        C316   1.401   1_655  A
C316        F317   1.358       .  S
C321        C322   1.403       .  A
C321        C326   1.395       .  A
C321        F328   1.358       .  S
C322        C323   1.411       .  A
C323        C324   1.403       .  A
C323        F330   1.355       .  S
C324        C325   1.407       .  A
C324        F329   1.357       .  S
C325        C326   1.410       .  A
C326        F327   1.358   1_556  S
C331        C332   1.416       .  A
C331        C336   1.407       .  A
C331        F338   1.358       .  S
C332        C333   1.409       .  A
C333        C334   1.391       .  A
C333        F340   1.351       .  S
C334        C335   1.409       .  A
C334        F339   1.359   1_455  S
C335        C336   1.413       .  A
C336        F337   1.357       .  S
C341        C342   1.408       .  A
C341        C346   1.409       .  A
C341        F348   1.357       .  S
C342        C343   1.408       .  A
C343        C344   1.385       .  A
C343        F350   1.356       .  S
C344        C345   1.400   1_455  A
C344        F349   1.359   1_455  S
C345        C346   1.408   1_655  A
C346        F347   1.357       .  S
C351        C352   1.408       .  A
C351        C356   1.405       .  A
C351        F358   1.357       .  S
C352        C353   1.403       .  A
C353        C354   1.394       .  A
C353        F360   1.358       .  S
C354        C355   1.400       .  A
C354        F359   1.347       .  S
C355        C356   1.405       .  A
C356        F357   1.356       .  S
C361        C362   1.426       .  A
C361        C366   1.399       .  A
C361        F368   1.356       .  S
C362        C363   1.434       .  A
C363        C364   1.399       .  A
C363        F370   1.344       .  S
C364        C365   1.395       .  A
C364        F369   1.360   1_655  S
C365        C366   1.398       .  A
C366        F367   1.357       .  S
C371        C372   1.416       .  A
C371        C376   1.407       .  A
C371        F378   1.358       .  S
C372        C373   1.408       .  A
C373        C374   1.390       .  A
C373        F380   1.355       .  S
C374        C375   1.401       .  A
C374        F379   1.352       .  S
C375        C376   1.411       .  A
C376        F377   1.358       .  S
C381        C382   1.409       .  A
C381        C386   1.395       .  A
C381        F388   1.357       .  S
C382        C383   1.407       .  A
C383        C384   1.404   1_545  A
C383        F390   1.357       .  S
C384        C385   1.406       .  A
C384        F389   1.354       .  S
C385        C386   1.398   1_565  A
C386        F387   1.351       .  S
C391        C392   1.406       .  A
C391        C396   1.385       .  A
C391        F398   1.357       .  S
C392        C393   1.407       .  A
C393        C394   1.404       .  A
C393        F400   1.357       .  S
C394        C395   1.406       .  A
C394        F399   1.357       .  S
C395        C396   1.401       .  A
C396        F397   1.356   1_655  S
C401        C402   1.407       .  A
C401        C406   1.388       .  A
C401        F408   1.354       .  S
C402        C403   1.416       .  A
C403        C404   1.406   1_554  A
C403        F410   1.357   1_554  S
C404        C405   1.408   1_556  A
C404        F409   1.357       .  S
C405        C406   1.400       .  A
C406        F407   1.358   1_545  S
C411        C412   1.414       .  A
C411        C416   1.408       .  A
C411        F418   1.356   1_554  S
C412        C413   1.411       .  A
C413        C414   1.389       .  A
C413        F420   1.359   1_655  S
C414        C415   1.407       .  A
C414        F419   1.353       .  S
C415        C416   1.415       .  A
C416        F417   1.357       .  S
C421        C422   1.407       .  A
C421        C426   1.406       .  A
C421        F428   1.357       .  S
C422        C423   1.405       .  A
C423        C424   1.382       .  A
C423        F430   1.357       .  S
C424        C425   1.401   1_655  A
C424        F429   1.357   1_655  S
C425        C426   1.407   1_455  A
C426        F427   1.357       .  S
C431        C432   1.408       .  A
C431        C436   1.407   1_545  A
C431        F438   1.357       .  S
C432        C433   1.407       .  A
C433        C434   1.391       .  A
C433        F440   1.357       .  S
C434        C435   1.397       .  A
C434        F439   1.350       .  S
C435        C436   1.407   1_545  A
C436        F437   1.355       .  S
C441        C442   1.413       .  A
C441        C446   1.406       .  A
C441        F448   1.355       .  S
C442        C443   1.404       .  A
C443        C444   1.398       .  A
C443        F450   1.358       .  S
C444        C445   1.414       .  A
C444        F449   1.358       .  S
C445        C446   1.409       .  A
C446        F447   1.357       .  S
C451        C452   1.418       .  A
C451        C456   1.400       .  A
C451        F458   1.358       .  S
C452        C453   1.421       .  A
C453        C454   1.402       .  A
C453        F460   1.347       .  S
C454        C455   1.407       .  A
C454        F459   1.359   1_655  S
C455        C456   1.407       .  A
C456        F457   1.349       .  S
C461        C462   1.407       .  A
C461        C466   1.398       .  A
C461        F468   1.357       .  S
C462        C463   1.406       .  A
C463        C464   1.400       .  A
C463        F470   1.357       .  S
C464        C465   1.404       .  A
C464        F469   1.355       .  S
C465        C466   1.401       .  A
C466        F467   1.354       .  S
C471        C472   1.425       .  A
C471        C476   1.403       .  A
C471        F478   1.356       .  S
C472        C473   1.418       .  A
C473        C474   1.395       .  A
C473        F480   1.351       .  S
C474        C475   1.396       .  A
C474        F479   1.359       .  S
C475        C476   1.402       .  A
C476        F477   1.358   1_554  S
C481        C482   1.405       .  A
C481        C486   1.400   1_554  A
C481        F488   1.358   1_554  S
C482        C483   1.405       .  A
C483        C484   1.400       .  A
C483        F490   1.353       .  S
C484        C485   1.412       .  A
C484        F489   1.357       .  S
C485        C486   1.415   1_554  A
C486        F487   1.358       .  S
C491        C492   1.410       .  A
C491        C496   1.405       .  A
C491        F498   1.357       .  S
C492        C493   1.407       .  A
C493        C494   1.392       .  A
C493        F500   1.355       .  S
C494        C495   1.398       .  A
C494        F499   1.353       .  S
C495        C496   1.405       .  A
C496        F497   1.356       .  S
C501        C502   1.400       .  A
C501        C506   1.388       .  A
C501        F508   1.359   1_655  S
C502        C503   1.409       .  A
C503        C504   1.410       .  A
C503        F510   1.357       .  S
C504        C505   1.407       .  A
C504        F509   1.357       .  S
C505        C506   1.410       .  A
C506        F507   1.355       .  S
C511        C512   1.404   1_655  A
C511        C516   1.396       .  A
C511        F518   1.356   1_655  S
C512        C513   1.400   1_455  A
C513        C514   1.396       .  A
C513        F520   1.358       .  S
C514        C515   1.410       .  A
C514        F519   1.354       .  S
C515        C516   1.406       .  A
C516        F517   1.357       .  S
C521        C522   1.409       .  A
C521        C526   1.393       .  A
C521        F528   1.351       .  S
C522        C523   1.418       .  A
C523        C524   1.398   1_554  A
C523        F530   1.349   1_554  S
C524        C525   1.402   1_556  A
C524        F529   1.358       .  S
C525        C526   1.403       .  A
C526        F527   1.353       .  S
C531        C532   1.426   1_556  A
C531        C536   1.401   1_556  A
C531        F538   1.353       .  S
C532        C533   1.409       .  A
C533        C534   1.393       .  A
C533        F540   1.342       .  S
C534        C535   1.396       .  A
C534        F539   1.357       .  S
C535        C536   1.403       .  A
C536        F537   1.359       .  S
C541        C542   1.403   1_545  A
C541        C546   1.395       .  A
C541        F548   1.356   1_545  S
C542        C543   1.401   1_565  A
C543        C544   1.401       .  A
C543        F550   1.357       .  S
C544        C545   1.411       .  A
C544        F549   1.355       .  S
C545        C546   1.404       .  A
C546        F547   1.356       .  S
C551        C552   1.405       .  A
C551        C556   1.398       .  A
C551        F558   1.357       .  S
C552        C553   1.412       .  A
C553        C554   1.395       .  A
C553        F560   1.355       .  S
C554        C555   1.397       .  A
C554        F559   1.358       .  S
C555        C556   1.405       .  A
C556        F557   1.356       .  S
C561        C562   1.422       .  A
C561        C566   1.392       .  A
C561        F568   1.354       .  S
C562        C563   1.419       .  A
C563        C564   1.408       .  A
C563        F570   1.355       .  S
C564        C565   1.407       .  A
C564        F569   1.358       .  S
C565        C566   1.400       .  A
C566        F567   1.355       .  S
C571        C572   1.402       .  A
C571        C576   1.391       .  A
C571        F578   1.353   1_545  S
C572        C573   1.406       .  A
C573        C574   1.404       .  A
C573        F580   1.358       .  S
C574        C575   1.417       .  A
C574        F579   1.357       .  S
C575        C576   1.408       .  A
C576        F577   1.354       .  S
C581        C582   1.407       .  A
C581        C586   1.408       .  A
C581        F588   1.357       .  S
C582        C583   1.402       .  A
C583        C584   1.386       .  A
C583        F590   1.356       .  S
C584        C585   1.406       .  A
C584        F589   1.358       .  S
C585        C586   1.409       .  A
C586        F587   1.357       .  S
C591        C592   1.409       .  A
C591        C596   1.394       .  A
C591        F598   1.357       .  S
C592        C593   1.408       .  A
C593        C594   1.406   1_545  A
C593        F600   1.357       .  S
C594        C595   1.406   1_565  A
C594        F599   1.358       .  S
C595        C596   1.399       .  A
C596        F597   1.357       .  S
