geometry optimzed in LAMMPS
_audit_creation_date              2020-11-30 
_audit_creation_method            'lammps2cif' 
_symmetry_space_group_name_H-M    'P1' 
_symmetry_Int_Tables_number       1 
_symmetry_cell_setting            triclinic 
loop_ 
_symmetry_equiv_pos_as_xyz 
  x,y,z 
_cell_length_a                    36.021196763773965 
_cell_length_b                    36.675106929575335 
_cell_length_c                    35.714087248199846 
_cell_angle_alpha                 90.08497672867516 
_cell_angle_beta                  90.3046406726418 
_cell_angle_gamma                 117.54361809570999 
loop_ 
_atom_site_label 
_atom_site_type_symbol 
_atom_site_fract_x 
_atom_site_fract_y 
_atom_site_fract_z 
_atom_site_charge 
C1          C  0.54639631  0.29352352  0.26308190    -0.02920
C2          C  0.72077107  0.42340217  0.26029549    -0.02920
C3          C  0.68581149  0.25764146  0.27797663    -0.02920
C4          C  0.65464943  0.32310403  0.14160312    -0.02920
C5          C  0.28923829  0.54818225  0.25820689    -0.02920
C6          C  0.28011631  0.69725467  0.27789404    -0.02920
C7          C  0.43158695  0.69896738  0.26816944    -0.02920
C8          C  0.33376085  0.65367681  0.14260434    -0.02920
C9          C  0.70439719  0.28307997  0.82993275    -0.02920
C10         C  0.70568851  0.43960280  0.84919073    -0.02920
C11         C  0.54736058  0.29038881  0.85813031    -0.02920
C12         C  0.67510385  0.33587312  0.97101462    -0.02920
C13         C  0.42345612  0.69392125  0.84549804    -0.02920
C14         C  0.27634537  0.54443108  0.84488146    -0.02920
C15         C  0.26211658  0.68534811  0.84090622    -0.02920
C16         C  0.32138070  0.64553005  0.96879641    -0.02920
In17       In  0.15603157  0.34236973  0.39605451     1.36870
C18         C  0.07476063  0.30167040  0.38296815     0.77140
O19         O  0.15221533  0.31609045  0.45292134    -0.61300
O20         O  0.16397085  0.37846517  0.44920246    -0.52210
C21         C  0.20307460  0.30445894  0.39205297     0.69810
O22         O  0.16513974  0.28794526  0.38230921    -0.47070
C23         C  0.18859541  0.40420573  0.34790237     0.74510
O24         O  0.10102166  0.29496734  0.36524688    -0.58930
O25         O  0.18798993  0.40973065  0.38265221    -0.49020
O26         O  0.09032101  0.33098589  0.40604940    -0.55360
C27         C  0.15944663  0.34881488  0.46994381     0.84690
O28         O  0.21798945  0.34178440  0.40148575    -0.57250
O29         O  0.17061869  0.36720414  0.33767308    -0.60550
In30       In  0.15848756  0.33567918  0.70426528     1.36870
C31         C  0.07665751  0.29340173  0.71625129     0.77140
O32         O  0.18098554  0.36686538  0.75978697    -0.61300
O33         O  0.17646609  0.40249015  0.71523256    -0.52210
C34         C  0.20536422  0.29711287  0.71423450     0.69810
O35         O  0.17229161  0.28818022  0.73218927    -0.47070
C36         C  0.16226905  0.34388529  0.63053297     0.74510
O37         O  0.10205457  0.27975051  0.72402973    -0.58930
O38         O  0.19012386  0.36937052  0.65199396    -0.49020
O39         O  0.09351413  0.32945867  0.70341490    -0.55360
C40         C  0.18667181  0.40158509  0.74877107     0.84690
O41         O  0.21508784  0.32661249  0.69188956    -0.57250
O42         O  0.13291150  0.31400767  0.64668140    -0.60550
In43       In  0.64294102  0.81736098  0.40831379     1.36870
C44         C  0.68447313  0.89756858  0.39681488     0.77140
O45         O  0.61038842  0.79707401  0.35319837    -0.61300
O46         O  0.57493588  0.80022041  0.39913290    -0.52210
C47         C  0.68026654  0.77059361  0.39536140     0.69810
O48         O  0.69163953  0.80515156  0.38037053    -0.47070
C49         C  0.63913994  0.81133164  0.48216338     0.74510
O50         O  0.69812565  0.87303939  0.38700669    -0.58930
O51         O  0.60944140  0.78779678  0.46113682    -0.49020
O52         O  0.64882038  0.88082375  0.41175376    -0.55360
C53         C  0.57526991  0.79096324  0.36528535     0.84690
O54         O  0.64828150  0.75889838  0.41559352    -0.57250
O55         O  0.67063657  0.83797317  0.46528818    -0.60550
In56       In  0.64386699  0.81932564  0.71717055     1.36870
C57         C  0.68173094  0.90029695  0.72728729     0.77140
O58         O  0.67146323  0.83821222  0.66040978    -0.61300
O59         O  0.60923913  0.78973982  0.66431692    -0.52210
C60         C  0.68506948  0.77482570  0.72579979     0.69810
O61         O  0.69828382  0.81072048  0.73868117    -0.47070
C62         C  0.57572930  0.79181883  0.75980461     0.74510
O63         O  0.69110119  0.87661852  0.74608018    -0.58930
O64         O  0.57523732  0.80004839  0.72571545    -0.49020
O65         O  0.65191431  0.88221168  0.70450215    -0.55360
C66         C  0.63934033  0.81208584  0.64340239     0.84690
O67         O  0.64948263  0.76086653  0.71062152    -0.57250
O68         O  0.61120138  0.79920471  0.77245686    -0.60550
In69       In  0.81756085  0.15442822  0.39858200     1.36870
C70         C  0.89739067  0.20044329  0.38434845     0.77140
O71         O  0.78474058  0.15752334  0.34629798    -0.61300
O72         O  0.79852941  0.20318232  0.38815730    -0.52210
C73         C  0.77734141  0.07397224  0.38953647     0.69810
O74         O  0.81498306  0.09509854  0.37972087    -0.47070
C75         C  0.81144581  0.15205532  0.47202661     0.74510
O76         O  0.87526863  0.16832209  0.36567590    -0.58930
O77         O  0.78911903  0.16202434  0.45136350    -0.49020
O78         O  0.87843117  0.20876718  0.40971790    -0.55360
C79         C  0.78145109  0.18856185  0.35712478     0.84690
O80         O  0.76030687  0.09443118  0.40267811    -0.57250
O81         O  0.83672518  0.14307279  0.45496719    -0.60550
In82       In  0.81450955  0.15695369  0.70632297     1.36870
C83         C  0.77177119  0.07722357  0.72066061     0.77140
O84         O  0.78414311  0.16493762  0.75804110    -0.61300
O85         O  0.79286360  0.20485589  0.71244100    -0.52210
C86         C  0.89647507  0.19964481  0.71877867     0.69810
O87         O  0.87528863  0.16302246  0.72938512    -0.47070
C88         C  0.81023913  0.15333103  0.63272321     0.74510
O89         O  0.80426672  0.10078384  0.73881695    -0.58930
O90         O  0.78633903  0.16208646  0.65219586    -0.49020
O91         O  0.76074589  0.09483446  0.69598486    -0.55360
C92         C  0.77944795  0.19446039  0.74512187     0.84690
O93         O  0.87532261  0.21480399  0.70333921    -0.57250
O94         O  0.83596660  0.14584381  0.65101929    -0.60550
In95       In  0.82263348  0.64168665  0.39647650     1.36870
C96         C  0.90600671  0.68255892  0.38698261     0.77140
O97         O  0.83877419  0.67187062  0.45290866    -0.61300
O98         O  0.80395554  0.60684458  0.45069631    -0.52210
C99         C  0.77394739  0.67826802  0.38797108     0.69810
O100        O  0.80891613  0.69072108  0.37234835    -0.47070
C101        C  0.79295026  0.57547803  0.35099088     0.74510
O102        O  0.88079552  0.69340463  0.37237880    -0.58930
O103        O  0.79292151  0.57306374  0.38611524    -0.49020
O104        O  0.88830351  0.64921658  0.40478051    -0.55360
C105        C  0.82068416  0.63873442  0.47091918     0.84690
O106        O  0.76249610  0.64534008  0.40591026    -0.57250
O107        O  0.80799645  0.61180106  0.33913333    -0.60550
In108      In  0.82908385  0.64684360  0.70718195     1.36870
C109        C  0.91227546  0.68515269  0.71571930     0.77140
O110        O  0.81296378  0.61905668  0.76464100    -0.61300
O111        O  0.80045272  0.57869212  0.71858103    -0.52210
C112        C  0.78163883  0.68449541  0.71853717     0.69810
O113        O  0.81708308  0.69616019  0.73348452    -0.47070
C114        C  0.82376732  0.64160212  0.63290900     0.74510
O115        O  0.88887420  0.69974671  0.72710648    -0.58930
O116        O  0.80611515  0.61057763  0.65375555    -0.49020
O117        O  0.89285132  0.64962573  0.70169413    -0.55360
C118        C  0.79777195  0.58243074  0.75333706     0.84690
O119        O  0.76963169  0.65243506  0.69887975    -0.57250
O120        O  0.84421355  0.67513193  0.65016604    -0.60550
In121      In  0.17049249  0.82736355  0.39439521     1.36870
C122        C  0.08753225  0.78153115  0.38619843     0.77140
O123        O  0.17674791  0.79435869  0.34322349    -0.61300
O124        O  0.22539722  0.81560027  0.38333843    -0.52210
C125        C  0.21078649  0.90815376  0.38181955     0.69810
O126        O  0.17761387  0.88465888  0.36437773    -0.47070
C127        C  0.17120129  0.82302340  0.46832878     0.74510
O128        O  0.10753533  0.81656560  0.37139415    -0.58930
O129        O  0.18007601  0.80031352  0.44756908    -0.49020
O130        O  0.11029552  0.76988993  0.40419715    -0.55360
C131        C  0.21091532  0.79584520  0.35348006     0.84690
O132        O  0.22327628  0.88998039  0.40450965    -0.57250
O133        O  0.16122717  0.84732044  0.45123763    -0.60550
In134      In  0.17590873  0.82078604  0.70354981     1.36870
C135        C  0.21889368  0.90114078  0.71678086     0.77140
O136        O  0.18705974  0.79999910  0.75951502    -0.61300
O137        O  0.21803402  0.79139021  0.71265168    -0.52210
C138        C  0.09339997  0.77675022  0.71329464     0.69810
O139        O  0.11443331  0.81245698  0.72646739    -0.47070
C140        C  0.17550649  0.82032264  0.62936913     0.74510
O141        O  0.18203964  0.87951560  0.72810757    -0.58930
O142        O  0.18509970  0.79689385  0.64831851    -0.49020
O143        O  0.23474180  0.88116077  0.70048470    -0.55360
C144        C  0.21045238  0.78581533  0.74711210     0.84690
O145        O  0.11484878  0.76295428  0.69634656    -0.57250
O146        O  0.16617491  0.84385539  0.64833808    -0.60550
In147      In  0.33492860  0.16614953  0.40489098     1.36870
C148        C  0.29923581  0.08594604  0.38775285     0.77140
O149        O  0.35734250  0.19019451  0.34705890    -0.61300
O150        O  0.40292996  0.19922944  0.38857315    -0.52210
C151        C  0.29459159  0.21074336  0.40207421     0.69810
O152        O  0.27849422  0.17377718  0.39147954    -0.47070
C153        C  0.34291107  0.16509332  0.47906143     0.74510
O154        O  0.28641737  0.11017948  0.37527858    -0.58930
O155        O  0.37412621  0.18056121  0.45757163    -0.49020
O156        O  0.33211315  0.10340568  0.40729634    -0.55360
C157        C  0.39556786  0.20567465  0.35535728     0.84690
O158        O  0.33145604  0.22487785  0.41458561    -0.57250
O159        O  0.30790575  0.15036648  0.46255154    -0.60550
In160      In  0.34144750  0.16045892  0.71557777     1.36870
C161        C  0.30519933  0.07905829  0.72346414     0.77140
O162        O  0.31283198  0.14411744  0.65830676    -0.61300
O163        O  0.37893693  0.17916472  0.66212415    -0.52210
C164        C  0.30148397  0.20629158  0.72152003     0.69810
O165        O  0.29001481  0.17259117  0.73825500    -0.47070
C166        C  0.40344569  0.19391638  0.76641500     0.74510
O167        O  0.28839381  0.10078212  0.73382430    -0.58930
O168        O  0.40992687  0.19280801  0.73187751    -0.49020
O169        O  0.34185650  0.09936513  0.71116419    -0.55360
C170        C  0.34706802  0.16191795  0.64109903     0.84690
O171        O  0.33473992  0.21748499  0.70316777    -0.57250
O172        O  0.36536962  0.17585874  0.77516903    -0.60550
C173        C  0.32492240  0.12659639  0.53961386    -0.02280
C174        C  0.34664843  0.16408894  0.52034367     0.07400
C175        C  0.37049748  0.20064736  0.54074766    -0.02400
C176        C  0.37160412  0.19990355  0.58024686    -0.02400
C177        C  0.34901953  0.16251095  0.59958620     0.07530
C178        C  0.32619258  0.12577025  0.57903276    -0.02600
Br179      Br  0.29777015  0.07375423  0.60470184    -0.01140
Br180      Br  0.29446473  0.07589716  0.51191151    -0.01220
Br181      Br  0.40149565  0.25079141  0.60771608    -0.01180
Br182      Br  0.39921438  0.25236302  0.51475111    -0.01160
C183        C  0.30350389  0.01059811  0.73500552    -0.02280
C184        C  0.28281484  0.03347491  0.72377583     0.07400
C185        C  0.24088611  0.01257924  0.71092679    -0.02400
C186        C  0.21994173  0.96933851  0.70935650    -0.02400
C187        C  0.24070425  0.94649959  0.72039907     0.07530
C188        C  0.28254984  0.96726258  0.73318316    -0.02600
Br189      Br  0.31088052  0.93636811  0.74944731    -0.01140
Br190      Br  0.36009507  0.03831542  0.75429718    -0.01220
Br191      Br  0.16363830  0.94174753  0.68906710    -0.01180
Br192      Br  0.21257310  0.04278570  0.69237107    -0.01160
C193        C  0.27712796  0.97436723  0.37641603    -0.02280
C194        C  0.23294230  0.95351947  0.37772886     0.07400
C195        C  0.21049891  0.97641476  0.37922229    -0.02400
C196        C  0.23207590  0.01972251  0.38134281    -0.02400
C197        C  0.27648619  0.04065140  0.38155441     0.07530
C198        C  0.29878806  0.01765991  0.37811566    -0.02600
Br199      Br  0.35917787  0.04507918  0.37476622    -0.01140
Br200      Br  0.30836088  0.94363967  0.37161223    -0.01220
Br201      Br  0.19983825  0.04935104  0.38741889    -0.01180
Br202      Br  0.15003141  0.94855113  0.38183831    -0.01160
C203        C  0.14824311  0.78500363  0.52872886    -0.02280
C204        C  0.17292412  0.82182554  0.50945500     0.07400
C205        C  0.19913670  0.85782254  0.52956189    -0.02400
C206        C  0.20026892  0.85715255  0.56888958    -0.02400
C207        C  0.17527303  0.82046662  0.58819004     0.07530
C208        C  0.14939754  0.78433101  0.56810970    -0.02600
Br209      Br  0.11361626  0.73457485  0.59460269    -0.01140
Br210      Br  0.11104518  0.73611238  0.50131261    -0.01220
Br211      Br  0.23745875  0.90611685  0.59630018    -0.01180
Br212      Br  0.23503912  0.90765769  0.50319474    -0.01160
C213        C  0.98330705  0.68964863  0.72759378    -0.02280
C214        C  0.95865427  0.70877049  0.71703276     0.07400
C215        C  0.97856971  0.75059922  0.70631249    -0.02400
C216        C  0.02256884  0.77292491  0.70597843    -0.02400
C217        C  0.04718652  0.75365570  0.71603736     0.07530
C218        C  0.02740674  0.71198711  0.72698477    -0.02600
Br219      Br  0.06067118  0.68579474  0.74265314    -0.01140
Br220      Br  0.95691665  0.63329533  0.74444834    -0.01220
Br221      Br  0.04888717  0.82929423  0.68888229    -0.01180
Br222      Br  0.94604335  0.77707648  0.68901532    -0.01160
C223        C  0.97860937  0.68910166  0.37971435    -0.02280
C224        C  0.95242249  0.70786158  0.38473167     0.07400
C225        C  0.97093529  0.75113744  0.38899175    -0.02400
C226        C  0.01487742  0.77520359  0.38847091    -0.02400
C227        C  0.04108864  0.75641042  0.38385689     0.07530
C228        C  0.02261305  0.71318719  0.37926509    -0.02600
Br229      Br  0.05730679  0.68657202  0.37089321    -0.01140
Br230      Br  0.95441302  0.63035455  0.37208138    -0.01220
Br231      Br  0.03883863  0.83382175  0.39717927    -0.01180
Br232      Br  0.93668184  0.77792156  0.39881191    -0.01160
C233        C  0.82762583  0.60917123  0.53245123    -0.02280
C234        C  0.81920216  0.63772085  0.51237488     0.07400
C235        C  0.81014952  0.66605409  0.53212158    -0.02400
C236        C  0.81103494  0.66683268  0.57153830    -0.02400
C237        C  0.82074210  0.63916352  0.59156587     0.07530
C238        C  0.82831678  0.60985640  0.57191963    -0.02600
Br239      Br  0.84224841  0.57211119  0.59884637    -0.01140
Br240      Br  0.84086025  0.57058307  0.50619342    -0.01220
Br241      Br  0.79673326  0.70459331  0.59805941    -0.01180
Br242      Br  0.79415380  0.70253131  0.50543770    -0.01160
C243        C  0.80470856  0.11671747  0.53303914    -0.02280
C244        C  0.80873976  0.15147421  0.51305156     0.07400
C245        C  0.81146917  0.18617680  0.53241397    -0.02400
C246        C  0.81127626  0.18650618  0.57173137    -0.02400
C247        C  0.80846601  0.15220017  0.59168100     0.07530
C248        C  0.80473514  0.11714498  0.57235509    -0.02600
Br249      Br  0.79779245  0.06897052  0.59969276    -0.01140
Br250      Br  0.79693950  0.06763408  0.50669254    -0.01220
Br251      Br  0.81765843  0.23513074  0.59814304    -0.01180
Br252      Br  0.81820665  0.23444176  0.50535668    -0.01160
C253        C  0.74901866  0.96593822  0.73111085    -0.02280
C254        C  0.70476152  0.94564952  0.73023347     0.07400
C255        C  0.68273040  0.96900064  0.72912911    -0.02400
C256        C  0.70471411  0.01217433  0.72735653    -0.02400
C257        C  0.74889585  0.03235066  0.72675297     0.07530
C258        C  0.77099829  0.00914355  0.72938069    -0.02600
Br259      Br  0.83149517  0.03593442  0.72717896    -0.01140
Br260      Br  0.78019934  0.93491750  0.73124227    -0.01220
Br261      Br  0.67395399  0.04359551  0.72662828    -0.01180
Br262      Br  0.62224794  0.94210280  0.73093546    -0.01160
C263        C  0.77701904  0.75067304  0.71832112    -0.02280
C264        C  0.75705091  0.70750565  0.72252872     0.07400
C265        C  0.71353706  0.68659655  0.72917181    -0.02400
C266        C  0.69015034  0.70858563  0.73134200    -0.02400
C267        C  0.71000539  0.75178700  0.72660824     0.07530
C268        C  0.75369748  0.77265845  0.72019583    -0.02600
Br269      Br  0.78195610  0.83116376  0.71071605    -0.01140
Br270      Br  0.83610241  0.77990971  0.70692710    -0.01220
Br271      Br  0.63101266  0.67909995  0.74215219    -0.01180
Br272      Br  0.68588920  0.62778740  0.73669067    -0.01160
C273        C  0.74784339  0.76704706  0.39599060    -0.02280
C274        C  0.70394185  0.74690471  0.39116966     0.07400
C275        C  0.68303242  0.70414661  0.38416157    -0.02400
C276        C  0.70588927  0.68165868  0.38221019    -0.02400
C277        C  0.74978125  0.70179228  0.38734702     0.07530
C278        C  0.77060504  0.74462146  0.39420650    -0.02600
Br279      Br  0.83007184  0.77268019  0.40460077    -0.01180
Br280      Br  0.77701599  0.82505362  0.40819726    -0.01220
Br281      Br  0.67699345  0.62346915  0.37127683    -0.01180
Br282      Br  0.62319777  0.67644761  0.37591958    -0.01160
C283        C  0.75156059  0.96248824  0.40309845    -0.02280
C284        C  0.70896846  0.94242342  0.39225815     0.07400
C285        C  0.68977877  0.96547750  0.37807165    -0.02400
C286        C  0.71275317  0.00850649  0.37562911    -0.02400
C287        C  0.75501503  0.02869844  0.38746141     0.07530
C288        C  0.77461173  0.00548807  0.40049174    -0.02600
Br289      Br  0.83219326  0.03232799  0.41762546    -0.01140
Br290      Br  0.77777217  0.93177284  0.42483475    -0.01220
Br291      Br  0.68639326  0.03949421  0.35480525    -0.01180
Br292      Br  0.63226887  0.93823533  0.36096410    -0.01160
C293        C  0.60237061  0.80553784  0.54282084    -0.02280
C294        C  0.63746384  0.80812023  0.52330550     0.07400
C295        C  0.67164098  0.80876849  0.54327762    -0.02400
C296        C  0.67160768  0.80876247  0.58262559    -0.02400
C297        C  0.63746511  0.80830882  0.60221966     0.07530
C298        C  0.60239094  0.80570243  0.58222669    -0.02600
Br299      Br  0.55530260  0.80508105  0.60844492    -0.01140
Br300      Br  0.55520159  0.80445909  0.51584845    -0.01220
Br301      Br  0.71764089  0.80728829  0.60949466    -0.01180
Br302      Br  0.71782711  0.80768246  0.51680259    -0.01160
C303        C  0.20943950  0.23072793  0.71883576    -0.02280
C304        C  0.23002948  0.27415862  0.71822061     0.07400
C305        C  0.27418869  0.29533905  0.72012937    -0.02400
C306        C  0.29755256  0.27332691  0.72212688    -0.02400
C307        C  0.27701991  0.22979586  0.72200684     0.07530
C308        C  0.23271594  0.20867134  0.72052891    -0.02600
Br309      Br  0.20309371  0.14925365  0.71774988    -0.01140
Br310      Br  0.14912157  0.20077399  0.71456539    -0.01220
Br311      Br  0.35776502  0.30347698  0.72653169    -0.01180
Br312      Br  0.30298486  0.35477826  0.72163105    -0.01160
C313        C  0.00620869  0.28697280  0.73282218    -0.02280
C314        C  0.03076982  0.26855103  0.72026891     0.07400
C315        C  0.01102264  0.22656221  0.70974022    -0.02400
C316        C  0.96714155  0.20357239  0.71088536    -0.02400
C317        C  0.94256973  0.22243171  0.72213943     0.07530
C318        C  0.96226401  0.26402459  0.73358955    -0.02600
Br319      Br  0.92916595  0.28952900  0.75133596    -0.01140
Br320      Br  0.03246326  0.34339120  0.75010948    -0.01220
Br321      Br  0.94090083  0.14702434  0.69375994    -0.01180
Br322      Br  0.04321340  0.20075680  0.69030796    -0.01160
C323        C  0.96913944  0.20765395  0.37836684    -0.02280
C324        C  0.94234187  0.22595680  0.37839199     0.07400
C325        C  0.95898939  0.26908908  0.37689264    -0.02400
C326        C  0.00251915  0.29403691  0.37697183    -0.02400
C327        C  0.02942033  0.27583682  0.37853030     0.07530
C328        C  0.01267646  0.23255117  0.37848950    -0.02600
Br329      Br  0.04877006  0.20675716  0.38250191    -0.01140
Br330      Br  0.94653810  0.14859205  0.38205600    -0.01220
Br331      Br  0.02506300  0.35310858  0.37447714    -0.01180
Br332      Br  0.92216360  0.29413897  0.37441134    -0.01160
C333        C  0.26884217  0.29815218  0.38226245    -0.02280
C334        C  0.22696213  0.28092763  0.39443699     0.07400
C335        C  0.20783821  0.24100705  0.40999275    -0.02400
C336        C  0.23007595  0.21816943  0.41246809    -0.02400
C337        C  0.27180232  0.23526299  0.40002720     0.07530
C338        C  0.29124930  0.27539830  0.38512885    -0.02600
Br339      Br  0.34780436  0.29860779  0.36644448    -0.01140
Br340      Br  0.29517455  0.35202245  0.35977245    -0.01220
Br341      Br  0.20366208  0.16407620  0.43484414    -0.01180
Br342      Br  0.15199389  0.21798808  0.43054249    -0.01160
C343        C  0.13339341  0.35620380  0.57115635    -0.02280
C344        C  0.16366839  0.34847360  0.58964204     0.07400
C345        C  0.19415994  0.34350943  0.56891703    -0.02400
C346        C  0.19339373  0.34472318  0.52958135    -0.02400
C347        C  0.16255446  0.35160922  0.51101287     0.07530
C348        C  0.13300510  0.35806560  0.53182469    -0.02600
Br349      Br  0.09051331  0.36697683  0.50640608    -0.01140
Br350      Br  0.09259087  0.36437154  0.59988817    -0.01220
Br351      Br  0.23475248  0.33713426  0.50108602    -0.01180
Br352      Br  0.23565149  0.33302601  0.59439464    -0.01160
C353        C  0.24663226  0.74951422  0.83197841    -0.02280
C354        C  0.23890800  0.70879984  0.82156245     0.07400
C355        C  0.21152929  0.69271401  0.78967966    -0.02400
C356        C  0.20825979  0.71920940  0.76280411    -0.02400
C357        C  0.22414056  0.76117465  0.77064516     0.07530
C358        C  0.24296740  0.77619897  0.80546997    -0.02600
Br359      Br  0.26285734  0.83374813  0.81750758    -0.01140
Br360      Br  0.23509091  0.76203594  0.88148739    -0.01220
Br361      Br  0.17764997  0.69698174  0.71646273    -0.01180
Br362      Br  0.16520963  0.63783624  0.78747138    -0.01160
C363        C  0.23484876  0.66231108  0.90920328    -0.02280
C364        C  0.26458869  0.69118214  0.88537384     0.07400
C365        C  0.30009610  0.71974725  0.90631373    -0.02400
C366        C  0.30856422  0.70764927  0.94183111    -0.02400
C367        C  0.29189553  0.66484455  0.95052072     0.07530
C368        C  0.24843970  0.64363010  0.93731558    -0.02600
Br369      Br  0.20037425  0.60273307  0.96405972    -0.01140
Br370      Br  0.18925531  0.67398261  0.92286128    -0.01220
Br371      Br  0.32743132  0.74868308  0.98123950    -0.01180
Br372      Br  0.32869856  0.77762131  0.89513197    -0.01160
C373        C  0.21983740  0.46707831  0.83569128    -0.02280
C374        C  0.25932090  0.50026584  0.82557539     0.07400
C375        C  0.27498691  0.49477527  0.79015732    -0.02400
C376        C  0.24799643  0.46778870  0.76279931    -0.02400
C377        C  0.20766961  0.43850875  0.77251289     0.07530
C378        C  0.19349447  0.43835245  0.80888034    -0.02600
Br379      Br  0.13767512  0.39737251  0.82220473    -0.01140
Br380      Br  0.21054239  0.44507379  0.88517135    -0.01220
Br381      Br  0.26841767  0.46769066  0.71263338    -0.01180
Br382      Br  0.33173111  0.50343261  0.78321843    -0.01160
C383        C  0.24477816  0.54919399  0.91649122    -0.02280
C384        C  0.27210244  0.54164878  0.89119254     0.07400
C385        C  0.30459976  0.54281015  0.91356714    -0.02400
C386        C  0.32789723  0.57872014  0.93532295    -0.02400
C387        C  0.30547160  0.59930540  0.95199689     0.07530
C388        C  0.26231624  0.57233384  0.95043312    -0.02600
Br389      Br  0.23819252  0.54723561  0.99817492    -0.01140
Br390      Br  0.18584263  0.51163678  0.92083382    -0.01220
Br391      Br  0.37856498  0.57705545  0.95133343    -0.01180
Br392      Br  0.29318911  0.49220726  0.93938935    -0.01160
C393        C  0.25079489  0.58400226  0.79450309    -0.02280
C394        C  0.24841096  0.56524400  0.82951133     0.07400
C395        C  0.21369806  0.56411393  0.84799177    -0.02400
C396        C  0.21160914  0.60190044  0.85180355    -0.02400
C397        C  0.23841809  0.63644756  0.82878019     0.07530
C398        C  0.24824364  0.62179258  0.79438106    -0.02600
Br399      Br  0.25466185  0.64913838  0.74704051    -0.01140
Br400      Br  0.22086766  0.54712210  0.75358940    -0.01220
Br401      Br  0.15799399  0.59528627  0.86889587    -0.01180
Br402      Br  0.16167477  0.51569389  0.83510259    -0.01160
C403        C  0.48763458  0.70222306  0.80382504    -0.02280
C404        C  0.47098463  0.71890124  0.83145486     0.07400
C405        C  0.49776958  0.76167781  0.83932798    -0.02400
C406        C  0.52933134  0.78670985  0.81373772    -0.02400
C407        C  0.53733026  0.76938020  0.78179122     0.07530
C408        C  0.51547850  0.72706059  0.77638624    -0.02600
Br409      Br  0.52876397  0.70223099  0.73377541    -0.01140
Br410      Br  0.49272560  0.65292115  0.81122907    -0.01220
Br411      Br  0.56319063  0.84496942  0.82266698    -0.01180
Br412      Br  0.50930955  0.78272105  0.88964176    -0.01160
C413        C  0.42908078  0.67832373  0.91753837    -0.02280
C414        C  0.41872566  0.69994834  0.88976878     0.07400
C415        C  0.40257416  0.72541938  0.90729452    -0.02400
C416        C  0.38599328  0.71519272  0.94405440    -0.02400
C417        C  0.36979428  0.67414138  0.95518421     0.07530
C418        C  0.40355830  0.66451402  0.95078047    -0.02600
Br419      Br  0.43255861  0.66312312  0.99555262    -0.01140
Br420      Br  0.48754298  0.69068594  0.92054916    -0.01220
Br421      Br  0.41918177  0.75346791  0.98325356    -0.01180
Br422      Br  0.42220285  0.78298583  0.89709216    -0.01160
C423        C  0.38901048  0.74618641  0.82275859    -0.02280
C424        C  0.39372598  0.70897523  0.82279203     0.07400
C425        C  0.35830996  0.67999081  0.80540546    -0.02400
C426        C  0.32376518  0.67150420  0.82695657    -0.02400
C427        C  0.31012478  0.70146860  0.82771833     0.07530
C428        C  0.34595241  0.74229232  0.82206525    -0.02600
Br429      Br  0.33904216  0.78722027  0.80180918    -0.01140
Br430      Br  0.43557835  0.79597711  0.80541461    -0.01220
Br431      Br  0.31904365  0.64355495  0.87249484    -0.01180
Br432      Br  0.35594145  0.69176514  0.75261247    -0.01160
C433        C  0.34427172  0.59443949  0.79949513    -0.02280
C434        C  0.32592735  0.57213460  0.83369476     0.07400
C435        C  0.35918326  0.57344342  0.85657289    -0.02400
C436        C  0.39705103  0.61122329  0.86100016    -0.02400
C437        C  0.40539888  0.64428389  0.83551862     0.07530
C438        C  0.38689701  0.62642068  0.80006008    -0.02600
Br439      Br  0.41598567  0.64647194  0.75307980    -0.01140
Br440      Br  0.31993650  0.58087564  0.74990254    -0.01220
Br441      Br  0.44310107  0.60405898  0.88158014    -0.01180
Br442      Br  0.36037193  0.52170934  0.86793684    -0.01160
C443        C  0.48714717  0.28700305  0.81489230    -0.02280
C444        C  0.49962164  0.27088563  0.84587764     0.07400
C445        C  0.46993452  0.23029994  0.85590954    -0.02400
C446        C  0.43978176  0.20399865  0.82943370    -0.02400
C447        C  0.43712625  0.21879407  0.79358768     0.07530
C448        C  0.46081270  0.26098289  0.78673051    -0.02600
Br449      Br  0.45165154  0.28493583  0.74147965    -0.01140
Br450      Br  0.48221063  0.33674722  0.82071501    -0.01220
Br451      Br  0.40225909  0.14781059  0.84245030    -0.01180
Br452      Br  0.45522358  0.21839021  0.90766541    -0.01160
C453        C  0.56169741  0.31870961  0.93039788    -0.02280
C454        C  0.55145269  0.28530494  0.90542896     0.07400
C455        C  0.55833984  0.25588862  0.92939101    -0.02400
C456        C  0.59069649  0.27098995  0.96002678    -0.02400
C457        C  0.62243852  0.31406939  0.96132226     0.07530
C458        C  0.60260337  0.33633410  0.94635829    -0.02600
Br459      Br  0.63063672  0.36056692  0.90792245    -0.01140
Br460      Br  0.51942840  0.31098352  0.96667895    -0.01220
Br461      Br  0.57516135  0.24100680  0.00623733    -0.01180
Br462      Br  0.53518747  0.19829106  0.91834680    -0.01160
C463        C  0.76944265  0.51436402  0.83933176    -0.02280
C464        C  0.72671716  0.48478853  0.83186133     0.07400
C465        C  0.70780279  0.49551667  0.80122201    -0.02400
C466        C  0.73228413  0.52233159  0.77289203    -0.02400
C467        C  0.77521005  0.54710060  0.77852343     0.07530
C468        C  0.79351415  0.54387359  0.81220263    -0.02600
Br469      Br  0.85256547  0.57983746  0.82062528    -0.01140
Br470      Br  0.79202779  0.52892795  0.88921965    -0.01220
Br471      Br  0.70559419  0.52846988  0.72772671    -0.01180
Br472      Br  0.65247125  0.49150223  0.80358007    -0.01160
C473        C  0.74981291  0.43161935  0.91153243    -0.02280
C474        C  0.71826074  0.44136003  0.89529985     0.07400
C475        C  0.69515088  0.44553464  0.92651692    -0.02400
C476        C  0.68453881  0.41759351  0.95852299    -0.02400
C477        C  0.70021151  0.38713501  0.96000938     0.07530
C478        C  0.74186672  0.40870118  0.94572937    -0.02600
Br479      Br  0.78569531  0.44013419  0.98161630    -0.01140
Br480      Br  0.80416505  0.44621187  0.89112136    -0.01220
Br481      Br  0.64160142  0.41761227  0.99100345    -0.01180
Br482      Br  0.70526797  0.50032021  0.93981467    -0.01160
C483        C  0.63278682  0.39281649  0.80826462    -0.02280
C484        C  0.65258982  0.41653889  0.84139533     0.07400
C485        C  0.61791371  0.41625710  0.86309500    -0.02400
C486        C  0.57689741  0.37866183  0.86467780    -0.02400
C487        C  0.57087114  0.34159345  0.84462013     0.07530
C488        C  0.59176775  0.35757386  0.80950738    -0.02600
Br489      Br  0.55955516  0.34525491  0.76357793    -0.01140
Br490      Br  0.65729842  0.41199730  0.75963916    -0.01220
Br491      Br  0.53414912  0.37940691  0.89663528    -0.01180
Br492      Br  0.62225777  0.46343284  0.88981504    -0.01160
C493        C  0.71137344  0.24404633  0.77115574    -0.02280
C494        C  0.72201004  0.25565857  0.80974455     0.07400
C495        C  0.75254231  0.24432892  0.82599148    -0.02400
C496        C  0.77358710  0.22828684  0.80329675    -0.02400
C497        C  0.76016849  0.21544362  0.76676304     0.07530
C498        C  0.72823935  0.22203283  0.75111381    -0.02600
Br499      Br  0.70696333  0.19957098  0.70171502    -0.01140
Br500      Br  0.67404966  0.25684094  0.74241306    -0.01220
Br501      Br  0.82357050  0.22579018  0.82124056    -0.01180
Br502      Br  0.76713160  0.24352544  0.87835926    -0.01160
C503        C  0.74794697  0.32046446  0.89492145    -0.02280
C504        C  0.71531907  0.28655857  0.87539166     0.07400
C505        C  0.69117279  0.25579176  0.90266629    -0.02400
C506        C  0.68246885  0.26837447  0.93904734    -0.02400
C507        C  0.69875494  0.31187378  0.94800015     0.07530
C508        C  0.74010201  0.33199322  0.93163574    -0.02600
Br509      Br  0.78906368  0.35670539  0.96357411    -0.01140
Br510      Br  0.80475399  0.34508826  0.87726060    -0.01220
Br511      Br  0.64786245  0.22459817  0.97193039    -0.01180
Br512      Br  0.66234702  0.19849074  0.88846627    -0.01160
C513        C  0.76497829  0.36908503  0.81100816    -0.02280
C514        C  0.72565862  0.32941833  0.80769912     0.07400
C515        C  0.69876194  0.34356746  0.79338953    -0.02400
C516        C  0.69323025  0.36994465  0.81955505    -0.02400
C517        C  0.72299526  0.41008815  0.82524556     0.07530
C518        C  0.76351371  0.41014977  0.81549889    -0.02600
Br519      Br  0.81027080  0.46003840  0.79923972    -0.01140
Br520      Br  0.81335091  0.36919312  0.78831372    -0.01220
Br521      Br  0.70139859  0.36072049  0.86945264    -0.01180
Br522      Br  0.70812408  0.35987052  0.74128712    -0.01160
C523        C  0.63791987  0.29011375  0.83607307    -0.02280
C524        C  0.65155417  0.26316229  0.82552692     0.07400
C525        C  0.61065201  0.22421889  0.82079786    -0.02400
C526        C  0.56854360  0.22529790  0.82802206    -0.02400
C527        C  0.56837736  0.26643874  0.83204439     0.07530
C528        C  0.60563060  0.29224741  0.81636873    -0.02600
Br529      Br  0.60460381  0.28793498  0.76213950    -0.01140
Br530      Br  0.62905309  0.27850622  0.88592191    -0.01220
Br531      Br  0.51708158  0.17542354  0.82496688    -0.01180
Br532      Br  0.61029928  0.17396955  0.80530731    -0.01160
C533        C  0.35306804  0.64098114  0.07396386    -0.02280
C534        C  0.33418065  0.65885976  0.09735098     0.07400
C535        C  0.31174590  0.67566921  0.07608172    -0.02400
C536        C  0.30109885  0.66596554  0.03728882    -0.02400
C537        C  0.31936145  0.64591949  0.01442791     0.07530
C538        C  0.34090286  0.62955875  0.03642441    -0.02600
Br539      Br  0.33691284  0.57729173  0.02585116    -0.01140
Br540      Br  0.40805029  0.64815277  0.08340699    -0.01220
Br541      Br  0.25184328  0.67128216  0.02386885    -0.01180
Br542      Br  0.30537176  0.72260175  0.09229405    -0.01160
C543        C  0.48445917  0.70202096  0.32257233    -0.02280
C544        C  0.47631682  0.71836619  0.28850513     0.07400
C545        C  0.50757638  0.75888218  0.27972705    -0.02400
C546        C  0.53475781  0.78514851  0.30742428    -0.02400
C547        C  0.53722412  0.76963412  0.34247830     0.07530
C548        C  0.51122977  0.72833428  0.35042394    -0.02600
Br549      Br  0.51496104  0.70688239  0.39924508    -0.01140
Br550      Br  0.47868580  0.64707212  0.32787858    -0.01220
Br551      Br  0.57208690  0.84202986  0.29608166    -0.01180
Br552      Br  0.53512016  0.76891053  0.23251882    -0.01160
C553        C  0.43893012  0.67549369  0.19906514    -0.02280
C554        C  0.43633383  0.70511030  0.22214336     0.07400
C555        C  0.42775696  0.73155004  0.19714006    -0.02400
C556        C  0.40552314  0.71434728  0.16245946    -0.02400
C557        C  0.38096130  0.67155893  0.15946516     0.07530
C558        C  0.40394743  0.65142508  0.17595026    -0.02600
Br559      Br  0.41169018  0.60566100  0.15744920    -0.01140
Br560      Br  0.49194925  0.69265800  0.17360296    -0.01220
Br561      Br  0.42790220  0.74192864  0.11512002    -0.01180
Br562      Br  0.46601139  0.78935644  0.19327952    -0.01160
C563        C  0.22902617  0.76982220  0.29507965    -0.02280
C564        C  0.22989440  0.77268769  0.33418395     0.07400
C565        C  0.24004115  0.74619217  0.35506613    -0.02400
C566        C  0.24787926  0.71625691  0.33692573    -0.02400
C567        C  0.25240425  0.71586133  0.29695509     0.07530
C568        C  0.23609105  0.73934097  0.27694995    -0.02600
Br569      Br  0.20334878  0.72001112  0.23182650    -0.01140
Br570      Br  0.21771407  0.80806830  0.26588435    -0.01220
Br571      Br  0.23602541  0.66969085  0.36837570    -0.01180
Br572      Br  0.23988665  0.74832557  0.40953856    -0.01160
C573        C  0.26673201  0.65768504  0.17241867    -0.02280
C574        C  0.31038345  0.67807747  0.16396423     0.07400
C575        C  0.32822181  0.71953152  0.18025197    -0.02400
C576        C  0.30693158  0.72805918  0.21001207    -0.02400
C577        C  0.27787986  0.69570026  0.23229288     0.07530
C578        C  0.25211015  0.66141657  0.20873933    -0.02600
Br579      Br  0.19269182  0.63052138  0.21547218    -0.01140
Br580      Br  0.22700069  0.64199222  0.13132044    -0.01220
Br581      Br  0.29844621  0.77639289  0.20469150    -0.01180
Br582      Br  0.36871926  0.77078946  0.15768440    -0.01160
C583        C  0.36197326  0.75616389  0.26887602    -0.02280
C584        C  0.32963303  0.72612464  0.29100165     0.07400
C585        C  0.34965277  0.72120448  0.32423646    -0.02400
C586        C  0.38880745  0.71951588  0.32039270    -0.02400
C587        C  0.40460175  0.72150814  0.28356687     0.07530
C588        C  0.40153975  0.75502438  0.26627559    -0.02600
Br589      Br  0.45058032  0.80718377  0.27640746    -0.01140
Br590      Br  0.36316586  0.80924737  0.27329192    -0.01220
Br591      Br  0.43051178  0.74797804  0.35890793    -0.01180
Br592      Br  0.33724477  0.73785780  0.37162089    -0.01160
C593        C  0.19678263  0.44258380  0.28771357    -0.02280
C594        C  0.21331054  0.43772614  0.32194751     0.07400
C595        C  0.25651718  0.45877337  0.32768054    -0.02400
C596        C  0.28215926  0.48582421  0.30025939    -0.02400
C597        C  0.26504191  0.50145540  0.27207118     0.07530
C598        C  0.22282945  0.47299316  0.26193744    -0.02600
Br599      Br  0.20500306  0.46013078  0.21059111    -0.01140
Br600      Br  0.13806888  0.40842947  0.27670221    -0.01220
Br601      Br  0.33552111  0.48620579  0.29633151    -0.01180
Br602      Br  0.28165273  0.44714104  0.37132760    -0.01160
C603        C  0.30933799  0.54732562  0.18732431    -0.02280
C604        C  0.28362803  0.55234090  0.21427668     0.07400
C605        C  0.25496067  0.56496635  0.19706422    -0.02400
C606        C  0.26522006  0.58442508  0.16163090    -0.02400
C607        C  0.30755986  0.60436139  0.15172165     0.07530
C608        C  0.32182517  0.57416977  0.15533511    -0.02600
Br609      Br  0.32696783  0.54877166  0.11027420    -0.01140
Br610      Br  0.30229226  0.49172306  0.18253812    -0.01220
Br611      Br  0.22782694  0.55428734  0.12094287    -0.01180
Br612      Br  0.19675063  0.54290142  0.20971623    -0.01160
C613        C  0.41063305  0.61898893  0.25459957    -0.02280
C614        C  0.40761308  0.64943420  0.27780525     0.07400
C615        C  0.38336675  0.62912937  0.31060855    -0.02400
C616        C  0.35159483  0.58699803  0.30793448    -0.02400
C617        C  0.33869881  0.56819326  0.27163895     0.07530
C618        C  0.37466790  0.58009942  0.24836800    -0.02600
Br619      Br  0.38698824  0.53852695  0.22680235    -0.01140
Br620      Br  0.46581919  0.62377500  0.24261740    -0.01220
Br621      Br  0.32563905  0.55729518  0.35315887    -0.01180
Br622      Br  0.39667759  0.65035922  0.36117393    -0.01160
C623        C  0.30389721  0.61962645  0.27855170    -0.02280
C624        C  0.27346422  0.57848017  0.27669986     0.07400
C625        C  0.23254351  0.57484527  0.28688923    -0.02400
C626        C  0.22826315  0.61287606  0.29015807    -0.02400
C627        C  0.26650510  0.65169972  0.29254955     0.07530
C628        C  0.29830569  0.64382525  0.30423542    -0.02600
Br629      Br  0.29481653  0.62723893  0.35591210    -0.01140
Br630      Br  0.33308027  0.64650268  0.23559811    -0.01220
Br631      Br  0.17442295  0.60950629  0.30220950    -0.01180
Br632      Br  0.18685030  0.52460062  0.30362205    -0.01160
C633        C  0.64662410  0.34331991  0.07215345    -0.02280
C634        C  0.65659281  0.31805260  0.09630240     0.07400
C635        C  0.67584794  0.29658401  0.07598046    -0.02400
C636        C  0.68764369  0.30499802  0.03714350    -0.02400
C637        C  0.67791136  0.33247209  0.01568409     0.07530
C638        C  0.66824947  0.35804183  0.03849616    -0.02600
Br639      Br  0.71321040  0.41175959  0.04408075    -0.01140
Br640      Br  0.58963656  0.32841475  0.06076847    -0.01220
Br641      Br  0.72893292  0.28871478  0.02067084    -0.01180
Br642      Br  0.68243869  0.25018177  0.09410861    -0.01160
C643        C  0.73001230  0.21662650  0.27808022    -0.02280
C644        C  0.70224426  0.22877088  0.29698230     0.07400
C645        C  0.69825529  0.22087664  0.33680475    -0.02400
C646        C  0.72407504  0.20744812  0.35581461    -0.02400
C647        C  0.75618916  0.20414619  0.33688224     0.07530
C648        C  0.75980384  0.20972888  0.29823027    -0.02600
Br649      Br  0.80588326  0.20740006  0.27254212    -0.01140
Br650      Br  0.72029277  0.19220246  0.22880112    -0.01220
Br651      Br  0.71421642  0.19094823  0.40825330    -0.01180
Br652      Br  0.65571439  0.22180180  0.36849104    -0.01160
C653        C  0.72156955  0.28815217  0.20930635    -0.02280
C654        C  0.68831758  0.25916082  0.23195555     0.07400
C655        C  0.65591474  0.23287813  0.20784926    -0.02400
C656        C  0.64579953  0.24935834  0.17448357    -0.02400
C657        C  0.67012410  0.29268603  0.16457208     0.07530
C658        C  0.71263306  0.30533333  0.17636705    -0.02600
Br659      Br  0.75628597  0.32372671  0.13918184    -0.01140
Br660      Br  0.77592934  0.28853289  0.21165399    -0.01220
Br661      Br  0.60325160  0.20726242  0.14338359    -0.01180
Br662      Br  0.62558767  0.17438350  0.21994812    -0.01160
C663        C  0.78152625  0.47661624  0.30584006    -0.02280
C664        C  0.75011454  0.46828370  0.27735416     0.07400
C665        C  0.74556935  0.50372654  0.26729160    -0.02400
C666        C  0.75552282  0.53633863  0.29297623    -0.02400
C667        C  0.77825745  0.53894785  0.32580810     0.07530
C668        C  0.79254054  0.50962959  0.33140500    -0.02600
Br669      Br  0.83009340  0.51630421  0.37298716    -0.01140
Br670      Br  0.81941158  0.45282722  0.30641000    -0.01220
Br671      Br  0.73813820  0.57788983  0.28210882    -0.01180
Br672      Br  0.75125233  0.52193199  0.21625177    -0.01160
C673        C  0.74741082  0.41968018  0.19145188    -0.02280
C674        C  0.71855216  0.42469790  0.21493306     0.07400
C675        C  0.68337138  0.42226905  0.19297297    -0.02400
C676        C  0.67505635  0.40260753  0.15756588    -0.02400
C677        C  0.68779730  0.37216051  0.15111147     0.07530
C678        C  0.73201833  0.39194301  0.15939039    -0.02600
Br679      Br  0.76860127  0.41028121  0.11639825    -0.01140
Br680      Br  0.80105839  0.46898820  0.18864600    -0.01220
Br681      Br  0.68635542  0.44222693  0.11795041    -0.01180
Br682      Br  0.65642289  0.45713142  0.19802621    -0.01160
C683        C  0.75842293  0.36997814  0.25856673    -0.02280
C684        C  0.73631410  0.38984256  0.27694752     0.07400
C685        C  0.72356480  0.37213949  0.31395634    -0.02400
C686        C  0.71520736  0.33023898  0.32135335    -0.02400
C687        C  0.71807349  0.30554502  0.29181761     0.07530
C688        C  0.75447301  0.33182783  0.27294399    -0.02600
Br689      Br  0.80410747  0.33173266  0.29429191    -0.01140
Br690      Br  0.80882108  0.39697214  0.22975116    -0.01220
Br691      Br  0.72780030  0.31935940  0.37131994    -0.01180
Br692      Br  0.71875300  0.40397392  0.35494310    -0.01160
C693        C  0.46961517  0.23307210  0.27340680    -0.02280
C694        C  0.50093689  0.27512312  0.28126231     0.07400
C695        C  0.49113222  0.29399893  0.31270993    -0.02400
C696        C  0.45793843  0.27062166  0.33738549    -0.02400
C697        C  0.42908080  0.23024083  0.32859676     0.07530
C698        C  0.43265469  0.21309996  0.29483919    -0.02600
Br699      Br  0.38901892  0.15849177  0.28151863    -0.01140
Br700      Br  0.47768980  0.19443883  0.24226420    -0.01220
Br701      Br  0.45040585  0.29406223  0.38388669    -0.01180
Br702      Br  0.51798488  0.35118648  0.32523665    -0.01160
C703        C  0.53757597  0.26749395  0.18662952    -0.02280
C704        C  0.54768356  0.29703636  0.21651707     0.07400
C705        C  0.56204321  0.33453463  0.19773739    -0.02400
C706        C  0.59292786  0.34439303  0.16843596    -0.02400
C707        C  0.60637971  0.31415194  0.15632398     0.07530
C708        C  0.56912973  0.27506239  0.15759620    -0.02600
Br709      Br  0.54899317  0.24557008  0.11083716    -0.01140
Br710      Br  0.47997298  0.24268988  0.16876902    -0.01220
Br711      Br  0.58834755  0.38093190  0.13170512    -0.01180
Br712      Br  0.51422285  0.34473194  0.18871839    -0.01160
C713        C  0.59813065  0.26962731  0.26175806    -0.02280
C714        C  0.56326494  0.26095244  0.27852865     0.07400
C715        C  0.55718788  0.22334588  0.30188825    -0.02400
C716        C  0.59367171  0.21131385  0.30197059    -0.02400
C717        C  0.63689222  0.24395551  0.28943512     0.07530
C718        C  0.63115514  0.27658192  0.28791137    -0.02600
Br719      Br  0.62757579  0.28887898  0.34272191    -0.01140
Br720      Br  0.57537781  0.22558997  0.22460640    -0.01220
Br721      Br  0.58169802  0.15553048  0.31179496    -0.01180
Br722      Br  0.51047200  0.19455237  0.33424797    -0.01160
C723        C  0.63942394  0.41715216  0.27126266    -0.02280
C724        C  0.67203945  0.40409926  0.27393185     0.07400
C725        C  0.65202717  0.36201346  0.27743442    -0.02400
C726        C  0.61407367  0.34468300  0.29763583    -0.02400
C727        C  0.58111851  0.34122721  0.27651154     0.07530
C728        C  0.59446002  0.38531508  0.26595572    -0.02600
Br729      Br  0.55727262  0.40815334  0.25386001    -0.01140
Br730      Br  0.65076351  0.47091899  0.28901427    -0.01220
Br731      Br  0.61484132  0.36831179  0.34718401    -0.01180
Br732      Br  0.65890043  0.33988170  0.23087286    -0.01160
loop_ 
_geom_bond_atom_site_label_1 
_geom_bond_atom_site_label_2 
_geom_bond_distance 
_geom_bond_site_symmetry_2 
_ccdc_geom_bond_type 
C1          C694   1.597       .  S
C1          C704   1.667       .  S
C1          C714   1.664       .  S
C1          C727   1.680       .  S
C2          C664   1.606       .  S
C2          C674   1.623       .  S
C2          C684   1.679       .  S
C2          C724   1.637       .  S
C3          C644   1.584       .  S
C3          C654   1.646       .  S
C3          C687   1.669       .  S
C3          C717   1.648       .  S
C4          C634   1.634       .  S
C4          C657   1.674       .  S
C4          C677   1.669       .  S
C4          C707   1.700       .  S
C5          C597   1.602       .  S
C5          C604   1.597       .  S
C5          C617   1.650       .  S
C5          C624   1.606       .  S
C6          C567   1.600       .  S
C6          C577   1.630       .  S
C6          C584   1.663       .  S
C6          C627   1.598       .  S
C7          C544   1.599       .  S
C7          C554   1.658       .  S
C7          C587   1.637       .  S
C7          C614   1.649       .  S
C8          C534   1.627       .  S
C8          C557   1.625       .  S
C8          C574   1.671       .  S
C8          C607   1.641       .  S
C9          C494   1.590       .  S
C9          C504   1.659       .  S
C9          C514   1.706       .  S
C9          C524   1.701       .  S
C10         C464   1.597       .  S
C10         C474   1.699       .  S
C10         C484   1.717       .  S
C10         C517   1.708       .  S
C11         C444   1.585       .  S
C11         C454   1.713       .  S
C11         C487   1.736       .  S
C11         C527   1.683       .  S
C12         C457   1.717       .  S
C12         C477   1.715       .  S
C12         C507   1.696       .  S
C12         C637   1.607   1_556  S
C13         C404   1.607       .  S
C13         C414   1.617       .  S
C13         C424   1.627       .  S
C13         C437   1.663       .  S
C14         C374   1.596       .  S
C14         C384   1.661       .  S
C14         C394   1.613       .  S
C14         C434   1.647       .  S
C15         C354   1.605       .  S
C15         C364   1.599       .  S
C15         C397   1.646       .  S
C15         C427   1.620       .  S
C16         C367   1.657       .  S
C16         C387   1.630       .  S
C16         C417   1.642       .  S
C16         C537   1.632   1_556  S
In17         O19   2.227       .  S
In17         O20   2.253       .  S
In17         O28   2.249       .  S
In17         O22   2.222       .  S
In17         O24   2.224       .  S
In17         O25   2.244       .  S
In17         O26   2.236       .  S
In17         O29   2.242       .  S
C18          O24   1.256       .  A
C18          O26   1.259       .  A
C18         C327   1.468       .  S
O19          C27   1.259       .  A
O20          C27   1.264       .  A
C21          O28   1.262       .  A
C21          O22   1.259       .  A
C21         C334   1.476       .  S
C23          O25   1.259       .  A
C23          O29   1.256       .  A
C23         C594   1.471       .  S
C27         C347   1.470       .  S
In30         O32   2.240       .  S
In30         O33   2.259       .  S
In30         O41   2.258       .  S
In30         O35   2.253       .  S
In30         O37   2.236       .  S
In30         O38   2.244       .  S
In30         O39   2.244       .  S
In30         O42   2.238       .  S
C31          O37   1.259       .  A
C31          O39   1.261       .  A
C31         C314   1.481       .  S
O32          C40   1.257       .  A
O33          C40   1.256       .  A
C34          O41   1.259       .  A
C34          O35   1.259       .  A
C34         C304   1.486       .  S
C36          O38   1.261       .  A
C36          O42   1.260       .  A
C36         C344   1.469       .  S
C40         C377   1.472       .  S
In43         O45   2.229       .  S
In43         O46   2.252       .  S
In43         O54   2.255       .  S
In43         O48   2.240       .  S
In43         O50   2.229       .  S
In43         O51   2.239       .  S
In43         O52   2.241       .  S
In43         O55   2.232       .  S
C44          O50   1.259       .  A
C44          O52   1.261       .  A
C44         C284   1.473       .  S
O45          C53   1.257       .  A
O46          C53   1.257       .  A
C47          O54   1.259       .  A
C47          O48   1.259       .  A
C47         C274   1.480       .  S
C49          O51   1.261       .  A
C49          O55   1.261       .  A
C49         C294   1.474       .  S
C53         C547   1.466       .  S
In56         O58   2.228       .  S
In56         O59   2.239       .  S
In56         O67   2.257       .  S
In56         O61   2.256       .  S
In56         O63   2.246       .  S
In56         O64   2.258       .  S
In56         O65   2.235       .  S
In56         O68   2.248       .  S
C57          O63   1.261       .  A
C57          O65   1.259       .  A
C57         C254   1.479       .  S
O58          C66   1.261       .  A
O59          C66   1.262       .  A
C60          O67   1.259       .  A
C60          O61   1.260       .  A
C60         C267   1.491       .  S
C62          O64   1.257       .  A
C62          O68   1.258       .  A
C62         C407   1.472       .  S
C66         C297   1.475       .  S
In69         O71   2.236       .  S
In69         O72   2.222       .  S
In69         O80   2.219       .  S
In69         O74   2.237       .  S
In69         O76   2.238       .  S
In69         O77   2.228       .  S
In69         O78   2.210       .  S
In69         O81   2.227       .  S
C70          O76   1.261       .  A
C70          O78   1.257       .  A
C70         C324   1.465       .  S
O71          C79   1.258       .  A
O72          C79   1.257       .  A
C73          O80   1.260       .  A
C73          O74   1.263       .  A
C73         C287   1.474       .  S
C75          O77   1.262       .  A
C75          O81   1.262       .  A
C75         C244   1.468       .  S
C79         C647   1.467       .  S
In82         O84   2.238       .  S
In82         O85   2.238       .  S
In82         O93   2.240       .  S
In82         O87   2.247       .  S
In82         O89   2.244       .  S
In82         O90   2.227       .  S
In82         O91   2.233       .  S
In82         O94   2.229       .  S
C83          O89   1.262       .  A
C83          O91   1.260       .  A
C83         C257   1.478       .  S
O84          C92   1.259       .  A
O85          C92   1.256       .  A
C86          O93   1.258       .  A
C86          O87   1.260       .  A
C86         C317   1.478       .  S
C88          O90   1.261       .  A
C88          O94   1.261       .  A
C88         C247   1.467       .  S
C92         C497   1.473       .  S
In95         O97   2.239       .  S
In95         O98   2.250       .  S
In95        O106   2.258       .  S
In95        O100   2.246       .  S
In95        O102   2.253       .  S
In95        O103   2.262       .  S
In95        O104   2.269       .  S
In95        O107   2.263       .  S
C96         O102   1.259       .  A
C96         O104   1.262       .  A
C96         C224   1.493       .  S
O97         C105   1.261       .  A
O98         C105   1.262       .  A
C99         O106   1.258       .  A
C99         O100   1.258       .  A
C99         C277   1.482       .  S
C101        O103   1.258       .  A
C101        O107   1.259       .  A
C101        C667   1.490       .  S
C105        C234   1.482       .  S
In108       O110   2.249       .  S
In108       O111   2.258       .  S
In108       O119   2.262       .  S
In108       O113   2.250       .  S
In108       O115   2.241       .  S
In108       O116   2.248       .  S
In108       O117   2.261       .  S
In108       O120   2.239       .  S
C109        O115   1.258       .  A
C109        O117   1.261       .  A
C109        C214   1.485       .  S
O110        C118   1.258       .  A
O111        C118   1.258       .  A
C112        O119   1.260       .  A
C112        O113   1.259       .  A
C112        C264   1.486       .  S
C114        O116   1.262       .  A
C114        O120   1.261       .  A
C114        C237   1.479       .  S
C118        C467   1.478       .  S
In121       O123   2.260       .  S
In121       O124   2.247       .  S
In121       O132   2.230       .  S
In121       O126   2.268       .  S
In121       O128   2.263       .  S
In121       O129   2.242       .  S
In121       O130   2.247       .  S
In121       O133   2.235       .  S
C122        O128   1.265       .  A
C122        O130   1.260       .  A
C122        C227   1.492       .  S
O123        C131   1.259       .  A
O124        C131   1.256       .  A
C125        O132   1.256       .  A
C125        O126   1.264       .  A
C125        C194   1.483       .  S
C127        O129   1.262       .  A
C127        O133   1.261       .  A
C127        C204   1.471       .  S
C131        C564   1.485       .  S
In134       O136   2.240       .  S
In134       O137   2.254       .  S
In134       O145   2.254       .  S
In134       O139   2.250       .  S
In134       O141   2.238       .  S
In134       O142   2.245       .  S
In134       O143   2.252       .  S
In134       O146   2.236       .  S
C135        O141   1.260       .  A
C135        O143   1.261       .  A
C135        C187   1.480       .  S
O136        C144   1.259       .  A
O137        C144   1.258       .  A
C138        O145   1.259       .  A
C138        O139   1.260       .  A
C138        C217   1.482       .  S
C140        O142   1.261       .  A
C140        O146   1.259       .  A
C140        C207   1.471       .  S
C144        C357   1.475       .  S
In147       O149   2.249       .  S
In147       O150   2.254       .  S
In147       O158   2.241       .  S
In147       O152   2.226       .  S
In147       O154   2.245       .  S
In147       O155   2.256       .  S
In147       O156   2.258       .  S
In147       O159   2.242       .  S
C148        O154   1.257       .  A
C148        O156   1.260       .  A
C148        C197   1.489       .  S
O149        C157   1.256       .  A
O150        C157   1.261       .  A
C151        O158   1.260       .  A
C151        O152   1.260       .  A
C151        C337   1.473       .  S
C153        O155   1.263       .  A
C153        O159   1.261       .  A
C153        C174   1.482       .  S
C157        C697   1.480       .  S
In160       O162   2.238       .  S
In160       O163   2.261       .  S
In160       O171   2.258       .  S
In160       O165   2.250       .  S
In160       O167   2.240       .  S
In160       O168   2.260       .  S
In160       O169   2.253       .  S
In160       O172   2.262       .  S
C161        O167   1.259       .  A
C161        O169   1.260       .  A
C161        C184   1.483       .  S
O162        C170   1.261       .  A
O163        C170   1.265       .  A
C164        O171   1.260       .  A
C164        O165   1.260       .  A
C164        C307   1.491       .  S
C166        O168   1.261       .  A
C166        O172   1.258       .  A
C166        C447   1.486       .  S
C170        C177   1.484       .  S
C173        C174   1.411       .  A
C173        C178   1.409       .  A
C173       Br180   1.933       .  S
C174        C175   1.411       .  A
C175        C176   1.412       .  A
C175       Br182   1.931       .  S
C176        C177   1.413       .  A
C176       Br181   1.931       .  S
C177        C178   1.413       .  A
C178       Br179   1.933       .  S
C183        C184   1.413       .  A
C183        C188   1.411   1_545  A
C183       Br190   1.931       .  S
C184        C185   1.414       .  A
C185        C186   1.407   1_545  A
C185       Br192   1.936       .  S
C186        C187   1.412       .  A
C186       Br191   1.936       .  S
C187        C188   1.411       .  A
C188       Br189   1.931       .  S
C193        C194   1.413       .  A
C193        C198   1.410   1_565  A
C193       Br200   1.934       .  S
C194        C195   1.411       .  A
C195        C196   1.411   1_565  A
C195       Br202   1.934       .  S
C196        C197   1.419       .  A
C196       Br201   1.935       .  S
C197        C198   1.414       .  A
C198       Br199   1.933       .  S
C203        C204   1.410       .  A
C203        C208   1.407       .  A
C203       Br210   1.931       .  S
C204        C205   1.410       .  A
C205        C206   1.406       .  A
C205       Br212   1.932       .  S
C206        C207   1.409       .  A
C206       Br211   1.932       .  S
C207        C208   1.410       .  A
C208       Br209   1.931       .  S
C213        C214   1.413       .  A
C213        C218   1.411   1_655  A
C213       Br220   1.931       .  S
C214        C215   1.415       .  A
C215        C216   1.408   1_655  A
C215       Br222   1.935       .  S
C216        C217   1.411       .  A
C216       Br221   1.935       .  S
C217        C218   1.412       .  A
C218       Br219   1.931       .  S
C223        C224   1.413       .  A
C223        C228   1.414   1_655  A
C223       Br230   1.933       .  S
C224        C225   1.416       .  A
C225        C226   1.412   1_655  A
C225       Br232   1.933       .  S
C226        C227   1.413       .  A
C226       Br231   1.935       .  S
C227        C228   1.416       .  A
C228       Br229   1.933       .  S
C233        C234   1.413       .  A
C233        C238   1.410       .  A
C233       Br240   1.932       .  S
C234        C235   1.413       .  A
C235        C236   1.408       .  A
C235       Br242   1.934       .  S
C236        C237   1.411       .  A
C236       Br241   1.934       .  S
C237        C238   1.412       .  A
C238       Br239   1.932       .  S
C243        C244   1.410       .  A
C243        C248   1.404       .  A
C243       Br250   1.931       .  S
C244        C245   1.410       .  A
C245        C246   1.404       .  A
C245       Br252   1.933       .  S
C246        C247   1.409       .  A
C246       Br251   1.933       .  S
C247        C248   1.409       .  A
C248       Br249   1.933       .  S
C253        C254   1.414       .  A
C253        C258   1.408   1_565  A
C253       Br260   1.933       .  S
C254        C255   1.412       .  A
C255        C256   1.407   1_565  A
C255       Br262   1.933       .  S
C256        C257   1.411       .  A
C256       Br261   1.933       .  S
C257        C258   1.412       .  A
C258       Br259   1.934       .  S
C263        C264   1.412       .  A
C263        C268   1.410       .  A
C263       Br270   1.935       .  S
C264        C265   1.412       .  A
C265        C266   1.412       .  A
C265       Br272   1.932       .  S
C266        C267   1.416       .  A
C266       Br271   1.933       .  S
C267        C268   1.416       .  A
C268       Br269   1.934       .  S
C273        C274   1.412       .  A
C273        C278   1.406       .  A
C273       Br280   1.935       .  S
C274        C275   1.412       .  A
C275        C276   1.411       .  A
C275       Br282   1.932       .  S
C276        C277   1.413       .  A
C276       Br281   1.931       .  S
C277        C278   1.413       .  A
C278       Br279   1.933       .  S
C283        C284   1.412       .  A
C283        C288   1.405   1_565  A
C283       Br290   1.934       .  S
C284        C285   1.410       .  A
C285        C286   1.406   1_565  A
C285       Br292   1.932       .  S
C286        C287   1.412       .  A
C286       Br291   1.934       .  S
C287        C288   1.412       .  A
C288       Br289   1.934       .  S
C293        C294   1.411       .  A
C293        C298   1.407       .  A
C293       Br300   1.933       .  S
C294        C295   1.410       .  A
C295        C296   1.405       .  A
C295       Br302   1.934       .  S
C296        C297   1.412       .  A
C296       Br301   1.934       .  S
C297        C298   1.412       .  A
C298       Br299   1.933       .  S
C303        C304   1.413       .  A
C303        C308   1.410       .  A
C303       Br310   1.934       .  S
C304        C305   1.412       .  A
C305        C306   1.412       .  A
C305       Br312   1.934       .  S
C306        C307   1.416       .  A
C306       Br311   1.931       .  S
C307        C308   1.416       .  A
C308       Br309   1.935       .  S
C313        C314   1.413       .  A
C313        C318   1.408   1_455  A
C313       Br320   1.933       .  S
C314        C315   1.415       .  A
C315        C316   1.407   1_455  A
C315       Br322   1.935       .  S
C316        C317   1.412       .  A
C316       Br321   1.935       .  S
C317        C318   1.411       .  A
C318       Br319   1.933       .  S
C323        C324   1.408       .  A
C323        C328   1.403   1_655  A
C323       Br330   1.935       .  S
C324        C325   1.410       .  A
C325        C326   1.403   1_655  A
C325       Br332   1.933       .  S
C326        C327   1.409       .  A
C326       Br331   1.933       .  S
C327        C328   1.414       .  A
C328       Br329   1.934       .  S
C333        C334   1.411       .  A
C333        C338   1.407       .  A
C333       Br340   1.931       .  S
C334        C335   1.414       .  A
C335        C336   1.404       .  A
C335       Br342   1.935       .  S
C336        C337   1.409       .  A
C336       Br341   1.936       .  S
C337        C338   1.412       .  A
C338       Br339   1.932       .  S
C343        C344   1.409       .  A
C343        C348   1.407       .  A
C343       Br350   1.930       .  S
C344        C345   1.407       .  A
C345        C346   1.406       .  A
C345       Br352   1.931       .  S
C346        C347   1.411       .  A
C346       Br351   1.932       .  S
C347        C348   1.408       .  A
C348       Br349   1.929       .  S
C353        C354   1.435       .  A
C353        C358   1.412       .  A
C353       Br360   1.921       .  S
C354        C355   1.437       .  A
C355        C356   1.410       .  A
C355       Br362   1.932       .  S
C356        C357   1.399       .  A
C356       Br361   1.940       .  S
C357        C358   1.398       .  A
C358       Br359   1.936       .  S
C363        C364   1.399       .  A
C363        C368   1.423       .  A
C363       Br370   1.943       .  S
C364        C365   1.429       .  A
C365        C366   1.422       .  A
C365       Br372   1.926       .  S
C366        C367   1.433       .  A
C366       Br371   1.935       .  S
C367        C368   1.464       .  A
C368       Br369   1.944       .  S
C373        C374   1.428       .  A
C373        C378   1.411       .  A
C373       Br380   1.910       .  S
C374        C375   1.439       .  A
C375        C376   1.406       .  A
C375       Br382   1.935       .  S
C376        C377   1.395       .  A
C376       Br381   1.941       .  S
C377        C378   1.397       .  A
C378       Br379   1.935       .  S
C383        C384   1.457       .  A
C383        C388   1.443       .  A
C383       Br390   1.931       .  S
C384        C385   1.398       .  A
C385        C386   1.418       .  A
C385       Br392   1.941       .  S
C386        C387   1.465       .  A
C386       Br391   1.937       .  S
C387        C388   1.405       .  A
C388       Br389   1.947       .  S
C393        C394   1.412       .  A
C393        C398   1.431       .  A
C393       Br400   1.938       .  S
C394        C395   1.401       .  A
C395        C396   1.429       .  A
C395       Br402   1.946       .  S
C396        C397   1.447       .  A
C396       Br401   1.934       .  S
C397        C398   1.450       .  A
C398       Br399   1.927       .  S
C403        C404   1.432       .  A
C403        C408   1.401       .  A
C403       Br410   1.918       .  S
C404        C405   1.438       .  A
C405        C406   1.421       .  A
C405       Br412   1.921       .  S
C406        C407   1.400       .  A
C406       Br411   1.933       .  S
C407        C408   1.390       .  A
C408       Br409   1.944       .  S
C413        C414   1.423       .  A
C413        C418   1.447       .  A
C413       Br420   1.941       .  S
C414        C415   1.452       .  A
C415        C416   1.423       .  A
C415       Br422   1.927       .  S
C416        C417   1.399       .  A
C416       Br421   1.945       .  S
C417        C418   1.424       .  A
C418       Br419   1.919       .  S
C423        C424   1.451       .  A
C423        C428   1.490       .  A
C423       Br430   1.927       .  S
C424        C425   1.371       .  A
C425        C426   1.375       .  A
C425       Br432   1.945       .  S
C426        C427   1.396       .  A
C426       Br431   1.890       .  S
C427        C428   1.471       .  A
C428       Br429   1.919       .  S
C433        C434   1.452       .  A
C433        C438   1.438       .  A
C433       Br440   1.931       .  S
C434        C435   1.429       .  A
C435        C436   1.433       .  A
C435       Br442   1.961       .  S
C436        C437   1.434       .  A
C436       Br441   1.937       .  S
C437        C438   1.436       .  A
C438       Br439   1.940       .  S
C443        C444   1.421       .  A
C443        C448   1.404       .  A
C443       Br450   1.924       .  S
C444        C445   1.422       .  A
C445        C446   1.422       .  A
C445       Br452   1.920       .  S
C446        C447   1.411       .  A
C446       Br451   1.930       .  S
C447        C448   1.402       .  A
C448       Br449   1.939       .  S
C453        C454   1.417       .  A
C453        C458   1.422       .  A
C453       Br460   1.924       .  S
C454        C455   1.485       .  A
C455        C456   1.500       .  A
C455       Br462   1.918       .  S
C456        C457   1.461       .  A
C456       Br461   1.921   1_556  S
C457        C458   1.414       .  A
C458       Br459   1.698       .  S
C463        C464   1.438       .  A
C463        C468   1.416       .  A
C463       Br470   1.924       .  S
C464        C465   1.434       .  A
C465        C466   1.407       .  A
C465       Br472   1.932       .  S
C466        C467   1.398       .  A
C466       Br471   1.939       .  S
C467        C468   1.400       .  A
C468       Br469   1.937       .  S
C473        C474   1.458       .  A
C473        C478   1.437       .  A
C473       Br480   1.923       .  S
C474        C475   1.445       .  A
C475        C476   1.466       .  A
C475       Br482   1.927       .  S
C476        C477   1.467       .  A
C476       Br481   1.939       .  S
C477        C478   1.431       .  A
C478       Br479   1.938       .  S
C483        C484   1.442       .  A
C483        C488   1.446       .  A
C483       Br490   1.933       .  S
C484        C485   1.469       .  A
C485        C486   1.485       .  A
C485       Br492   1.916       .  S
C486        C487   1.460       .  A
C486       Br491   1.932       .  S
C487        C488   1.445       .  A
C488       Br489   1.932       .  S
C493        C494   1.438       .  A
C493        C498   1.411       .  A
C493       Br500   1.911       .  S
C494        C495   1.461       .  A
C495        C496   1.413       .  A
C495       Br502   1.944       .  S
C496        C497   1.392       .  A
C496       Br501   1.950       .  S
C497        C498   1.394       .  A
C498       Br499   1.943       .  S
C503        C504   1.432       .  A
C503        C508   1.446       .  A
C503       Br510   1.925       .  S
C504        C505   1.443       .  A
C505        C506   1.461       .  A
C505       Br512   1.930       .  S
C506        C507   1.457       .  A
C506       Br511   1.919       .  S
C507        C508   1.449       .  A
C508       Br509   1.931       .  S
C513        C514   1.493       .  A
C513        C518   1.539       .  A
C513       Br520   1.924       .  S
C514        C515   1.389       .  A
C515        C516   1.424       .  A
C515       Br522   1.938       .  S
C516        C517   1.377       .  A
C516       Br521   1.861       .  S
C517        C518   1.501       .  A
C518       Br519   1.920       .  S
C523        C524   1.345       .  A
C523        C528   1.389       .  A
C523       Br530   1.826       .  S
C524        C525   1.513       .  A
C525        C526   1.558       .  A
C525       Br532   1.918       .  S
C526        C527   1.518       .  A
C526       Br531   1.912       .  S
C527        C528   1.358       .  A
C528       Br529   1.942       .  S
C533        C534   1.417       .  A
C533        C538   1.410       .  A
C533       Br540   1.902       .  S
C534        C535   1.437       .  A
C535        C536   1.435       .  A
C535       Br542   1.927       .  S
C536        C537   1.446       .  A
C536       Br541   1.931       .  S
C537        C538   1.416       .  A
C538       Br539   1.892       .  S
C543        C544   1.445       .  A
C543        C548   1.406       .  A
C543       Br550   1.938       .  S
C544        C545   1.425       .  A
C545        C546   1.407       .  A
C545       Br552   1.909       .  S
C546        C547   1.395       .  A
C546       Br551   1.933       .  S
C547        C548   1.394       .  A
C548       Br549   1.943       .  S
C553        C554   1.400       .  A
C553        C558   1.417       .  A
C553       Br560   1.944       .  S
C554        C555   1.453       .  A
C555        C556   1.447       .  A
C555       Br562   1.927       .  S
C556        C557   1.404       .  A
C556       Br561   1.949       .  S
C557        C558   1.463       .  A
C558       Br559   1.940       .  S
C563        C564   1.399       .  A
C563        C568   1.413       .  A
C563       Br570   1.936       .  S
C564        C565   1.401       .  A
C565        C566   1.411       .  A
C565       Br572   1.947       .  S
C566        C567   1.438       .  A
C566       Br571   1.923       .  S
C567        C568   1.436       .  A
C568       Br569   1.922       .  S
C573        C574   1.429       .  A
C573        C578   1.433       .  A
C573       Br580   1.936       .  S
C574        C575   1.467       .  A
C575        C576   1.430       .  A
C575       Br582   1.947       .  S
C576        C577   1.414       .  A
C576       Br581   1.942       .  S
C577        C578   1.435       .  A
C578       Br579   1.920       .  S
C583        C584   1.421       .  A
C583        C588   1.448       .  A
C583       Br590   1.934       .  S
C584        C585   1.440       .  A
C585        C586   1.447       .  A
C585       Br592   1.922       .  S
C586        C587   1.424       .  A
C586       Br591   1.940       .  S
C587        C588   1.425       .  A
C588       Br589   1.943       .  S
C593        C594   1.404       .  A
C593        C598   1.420       .  A
C593       Br600   1.933       .  S
C594        C595   1.395       .  A
C595        C596   1.401       .  A
C595       Br602   1.943       .  S
C596        C597   1.430       .  A
C596       Br601   1.922       .  S
C597        C598   1.434       .  A
C598       Br599   1.924       .  S
C603        C604   1.409       .  A
C603        C608   1.441       .  A
C603       Br610   1.942       .  S
C604        C605   1.447       .  A
C605        C606   1.418       .  A
C605       Br612   1.923       .  S
C606        C607   1.400       .  A
C606       Br611   1.935       .  S
C607        C608   1.426       .  A
C608       Br609   1.911       .  S
C613        C614   1.434       .  A
C613        C618   1.432       .  A
C613       Br620   1.963       .  S
C614        C615   1.450       .  A
C615        C616   1.439       .  A
C615       Br622   1.934       .  S
C616        C617   1.437       .  A
C616       Br621   1.936       .  S
C617        C618   1.432       .  A
C618       Br619   1.934       .  S
C623        C624   1.397       .  A
C623        C628   1.354       .  A
C623       Br630   1.869       .  S
C624        C625   1.465       .  A
C625        C626   1.477       .  A
C625       Br632   1.916       .  S
C626        C627   1.455       .  A
C626       Br631   1.936       .  S
C627        C628   1.368       .  A
C628       Br629   1.931       .  S
C633        C634   1.428       .  A
C633        C638   1.402       .  A
C633       Br640   1.905       .  S
C634        C635   1.462       .  A
C635        C636   1.444       .  A
C635       Br642   1.936       .  S
C636        C637   1.432       .  A
C636       Br641   1.935       .  S
C637        C638   1.402       .  A
C638       Br639   1.894       .  S
C643        C644   1.440       .  A
C643        C648   1.406       .  A
C643       Br650   1.929       .  S
C644        C645   1.446       .  A
C645        C646   1.409       .  A
C645       Br652   1.923       .  S
C646        C647   1.396       .  A
C646       Br651   1.952       .  S
C647        C648   1.394       .  A
C648       Br649   1.937       .  S
C653        C654   1.433       .  A
C653        C658   1.439       .  A
C653       Br660   1.953       .  S
C654        C655   1.407       .  A
C655        C656   1.456       .  A
C655       Br662   1.955       .  S
C656        C657   1.461       .  A
C656       Br661   1.938       .  S
C657        C658   1.440       .  A
C658       Br659   1.933       .  S
C663        C664   1.441       .  A
C663        C668   1.416       .  A
C663       Br670   1.930       .  S
C664        C665   1.429       .  A
C665        C666   1.413       .  A
C665       Br672   1.921       .  S
C666        C667   1.404       .  A
C666       Br671   1.936       .  S
C667        C668   1.404       .  A
C668       Br669   1.941       .  S
C673        C674   1.415       .  A
C673        C678   1.457       .  A
C673       Br680   1.946       .  S
C674        C675   1.454       .  A
C675        C676   1.415       .  A
C675       Br682   1.939       .  S
C676        C677   1.409       .  A
C676       Br681   1.935       .  S
C677        C678   1.441       .  A
C678       Br679   1.937       .  S
C683        C684   1.462       .  A
C683        C688   1.435       .  A
C683       Br690   1.922       .  S
C684        C685   1.454       .  A
C685        C686   1.448       .  A
C685       Br692   1.929       .  S
C686        C687   1.424       .  A
C686       Br691   1.926       .  S
C687        C688   1.395       .  A
C688       Br689   1.941       .  S
C693        C694   1.455       .  A
C693        C698   1.416       .  A
C693       Br700   1.926       .  S
C694        C695   1.447       .  A
C695        C696   1.417       .  A
C695       Br702   1.911       .  S
C696        C697   1.394       .  A
C696       Br701   1.946       .  S
C697        C698   1.393       .  A
C698       Br699   1.946       .  S
C703        C704   1.440       .  A
C703        C708   1.472       .  A
C703       Br710   1.944       .  S
C704        C705   1.399       .  A
C705        C706   1.451       .  A
C705       Br712   1.950       .  S
C706        C707   1.466       .  A
C706       Br711   1.937       .  S
C707        C708   1.442       .  A
C708       Br709   1.934       .  S
C713        C714   1.295       .  A
C713        C718   1.435       .  A
C713       Br720   1.949       .  S
C714        C715   1.540       .  A
C715        C716   1.568       .  A
C715       Br722   1.914       .  S
C716        C717   1.531       .  A
C716       Br721   1.919       .  S
C717        C718   1.306       .  A
C718       Br719   2.026       .  S
C723        C724   1.462       .  A
C723        C728   1.507       .  A
C723       Br730   1.925       .  S
C724        C725   1.375       .  A
C725        C726   1.415       .  A
C725       Br732   1.916       .  S
C726        C727   1.358       .  A
C726       Br731   1.964       .  S
C727        C728   1.508       .  A
C728       Br729   1.927       .  S
