geometry optimzed in LAMMPS
_audit_creation_date              2020-11-30 
_audit_creation_method            'lammps2cif' 
_symmetry_space_group_name_H-M    'P1' 
_symmetry_Int_Tables_number       1 
_symmetry_cell_setting            triclinic 
loop_ 
_symmetry_equiv_pos_as_xyz 
  x,y,z 
_cell_length_a                    85.29774916 
_cell_length_b                    85.34985848866322 
_cell_length_c                    38.581075882747946 
_cell_angle_alpha                 89.25385417255745 
_cell_angle_beta                  90.26599344154057 
_cell_angle_gamma                 89.12502904169672 
loop_ 
_atom_site_label 
_atom_site_type_symbol 
_atom_site_fract_x 
_atom_site_fract_y 
_atom_site_fract_z 
_atom_site_charge 
C1          C  0.48485887  0.90575307  0.31192998     0.87200
C2          C  0.48599866  0.89863678  0.34887511    -0.53000
C3          C  0.49854832  0.90358317  0.36780387     0.10100
C4          C  0.50963577  0.91427931  0.34696173     0.21100
C5          C  0.48599856  0.92351725  0.31766408    -0.53800
C6          C  0.49896617  0.92795001  0.33544595     0.10200
C7          C  0.50051135  0.90098426  0.29531644    -0.53300
C8          C  0.51353818  0.90571668  0.31297077     0.10800
H9          H  0.47758671  0.89081774  0.36018899     0.15300
H10         H  0.52009310  0.91815480  0.36158762     0.01100
H11         H  0.47753862  0.93196638  0.30719314     0.15600
H12         H  0.50125998  0.89544569  0.27021660     0.15400
C13         C  0.47858956  0.90792837  0.68023632     0.87200
C14         C  0.49355395  0.90313428  0.70004817    -0.53000
C15         C  0.50711714  0.90805154  0.68522164     0.10100
C16         C  0.50451151  0.91670903  0.65031206     0.21100
C17         C  0.47975929  0.92564678  0.67406718    -0.53800
C18         C  0.49307653  0.93036432  0.65801557     0.10200
C19         C  0.48107009  0.90099057  0.64359664    -0.53300
C20         C  0.49471266  0.90567000  0.62786504     0.10800
H21         H  0.49341300  0.89698115  0.72484121     0.15300
H22         H  0.51557191  0.92040807  0.63788231     0.01100
H23         H  0.47073514  0.93374873  0.68257926     0.15600
H24         H  0.47254040  0.89408358  0.63006268     0.15400
C25         C  0.48642228  0.06566698  0.31078350     0.87200
C26         C  0.50190832  0.07185032  0.29579910    -0.53000
C27         C  0.51503046  0.06671972  0.31327524     0.10100
C28         C  0.51156776  0.05644736  0.34526806     0.21100
C29         C  0.48878330  0.04781174  0.31343369    -0.53800
C30         C  0.50194454  0.04291811  0.33103679     0.10200
C31         C  0.48672390  0.07084531  0.34905356    -0.53300
C32         C  0.49979084  0.06598758  0.36698230     0.10800
H33         H  0.50251505  0.07918159  0.27268063     0.15300
H34         H  0.52232343  0.05270190  0.35949530     0.01100
H35         H  0.48065528  0.03966120  0.30197299     0.15600
H36         H  0.47743249  0.07711469  0.36216523     0.15400
C37         C  0.52286354  0.06920580  0.68316091     0.87200
C38         C  0.50714972  0.07365475  0.70082416    -0.53000
C39         C  0.49409693  0.06766375  0.68508769     0.10100
C40         C  0.49804450  0.05803002  0.65256338     0.21100
C41         C  0.52244135  0.05127669  0.68191008    -0.53800
C42         C  0.50964810  0.04538189  0.66589318     0.10200
C43         C  0.52070241  0.07472234  0.64537827    -0.53300
C44         C  0.50792281  0.06870344  0.62898876     0.10800
H45         H  0.50617248  0.08012534  0.72463952     0.15300
H46         H  0.48775117  0.05321977  0.63909222     0.01100
H47         H  0.53186561  0.04386935  0.69202463     0.15600
H48         H  0.52912160  0.08201348  0.63200940     0.15400
C49         C  0.91812194  0.47238755  0.31121100     0.87200
C50         C  0.91433104  0.48787030  0.29218114    -0.53000
C51         C  0.91949159  0.50081097  0.30863369     0.10100
C52         C  0.92744197  0.49728419  0.34387875     0.21100
C53         C  0.93586613  0.47270898  0.31871338    -0.53800
C54         C  0.94078825  0.48558295  0.33612610     0.10200
C55         C  0.91076469  0.47445310  0.34762195    -0.53300
C56         C  0.91579994  0.48743562  0.36486573     0.10800
H57         H  0.90885525  0.48851174  0.26674139     0.15300
H58         H  0.93127687  0.50791621  0.35759837     0.01100
H59         H  0.94381267  0.46344685  0.31064007     0.15600
H60         H  0.90367240  0.46584174  0.36075412     0.15400
C61         C  0.92408829  0.51027611  0.68118388     0.87200
C62         C  0.91788896  0.49451168  0.69598400    -0.53000
C63         C  0.92308992  0.48134774  0.67877109     0.10100
C64         C  0.93379539  0.48539388  0.64799666     0.21100
C65         C  0.94184829  0.50777888  0.68138369    -0.53800
C66         C  0.94690265  0.49486168  0.66451223     0.10200
C67         C  0.91924570  0.51009951  0.64272552    -0.53300
C68         C  0.92440841  0.49717432  0.62538867     0.10800
H69         H  0.91066109  0.49354137  0.71878782     0.15300
H70         H  0.93810891  0.47542270  0.63268759     0.01100
H71         H  0.94987080  0.51553955  0.69445661     0.15600
H72         H  0.91257397  0.51948066  0.63006686     0.15400
C73         C  0.08212698  0.51193731  0.33605675     0.87200
C74         C  0.08516030  0.49651484  0.31603947    -0.53000
C75         C  0.07806892  0.48358286  0.33009903     0.10100
C76         C  0.06888756  0.48721436  0.36346653     0.21100
C77         C  0.06417583  0.51298939  0.33820373    -0.53800
C78         C  0.05714352  0.50013265  0.35191002     0.10200
C79         C  0.08766318  0.50802264  0.37318057    -0.53300
C80         C  0.08064826  0.49528837  0.38784362     0.10800
H81         H  0.09164547  0.49563159  0.29212899     0.15300
H82         H  0.06343637  0.47680545  0.37557009     0.01100
H83         H  0.05759265  0.52323137  0.32928213     0.15600
H84         H  0.09574246  0.51524882  0.38745884     0.15400
C85         C  0.08658075  0.51123216  0.70258473     0.87200
C86         C  0.09333345  0.50874545  0.66591642    -0.53000
C87         C  0.08767449  0.49585356  0.64940740     0.10100
C88         C  0.07658162  0.48599902  0.67212662     0.21100
C89         C  0.06880705  0.51086671  0.69649739    -0.53800
C90         C  0.06340826  0.49765160  0.68110167     0.10200
C91         C  0.09071270  0.49590628  0.72210699    -0.53300
C92         C  0.08521988  0.48273573  0.70680345     0.10800
H93         H  0.10076095  0.51691335  0.65237597     0.15300
H94         H  0.07269321  0.47509495  0.65983720     0.01100
H95         H  0.06116975  0.52061542  0.70341114     0.15600
H96         H  0.09692303  0.49553734  0.74672086     0.15400
C97         C  0.91331368  0.34406790  0.16707696     0.87200
C98         C  0.93098135  0.34721444  0.17049407    -0.53000
C99         C  0.93562651  0.36144191  0.15772547     0.10100
C100        C  0.92196221  0.37152301  0.14354710     0.21100
C101        C  0.90571451  0.35804607  0.18605854    -0.53800
C102        C  0.91052650  0.37238501  0.17436106     0.10200
C103        C  0.90938804  0.34713047  0.12876642    -0.53300
C104        C  0.91420547  0.36126231  0.11588179     0.10800
H105        H  0.93911660  0.33884887  0.18245352     0.15300
H106        H  0.92562183  0.38299529  0.13330449     0.01100
H107        H  0.89834627  0.35708318  0.20868448     0.15600
H108        H  0.90402349  0.33836417  0.11258853     0.15400
C109        C  0.91448230  0.34768012  0.80582400     0.87200
C110        C  0.90836898  0.36244883  0.78652684    -0.53000
C111        C  0.91493467  0.37615097  0.79717582     0.10100
C112        C  0.92690651  0.37383826  0.82699635     0.21100
C113        C  0.93241263  0.34827663  0.80238796    -0.53800
C114        C  0.93894699  0.36180047  0.81369338     0.10200
C115        C  0.91162822  0.35141354  0.84449429    -0.53300
C116        C  0.91820903  0.36496768  0.85572456     0.10800
H117        H  0.89984144  0.36206904  0.76560713     0.15300
H118        H  0.93224844  0.38485172  0.83556167     0.01100
H119        H  0.93931434  0.33866103  0.79205250     0.15600
H120        H  0.90550038  0.34395102  0.86272153     0.15400
C121        C  0.07378686  0.35572172  0.17837927     0.87200
C122        C  0.07933017  0.36907510  0.20152934    -0.53000
C123        C  0.07479478  0.38377015  0.19031095     0.10100
C124        C  0.06502878  0.38379479  0.15650449     0.21100
C125        C  0.05591065  0.35828060  0.17519925    -0.53800
C126        C  0.05134786  0.37285220  0.16459607     0.10200
C127        C  0.07954984  0.36001554  0.14164152    -0.53300
C128        C  0.07510687  0.37472233  0.12996123     0.10800
H129        H  0.08576904  0.36701442  0.22554962     0.15300
H130        H  0.06106469  0.39563361  0.14766336     0.01100
H131        H  0.04727757  0.34926185  0.17938454     0.15600
H132        H  0.08526145  0.35155171  0.12501939     0.15400
C133        C  0.07852158  0.34738864  0.82395915     0.87200
C134        C  0.06100650  0.35001336  0.81625848    -0.53000
C135        C  0.05498813  0.36397662  0.82719216     0.10100
C136        C  0.06707430  0.37420248  0.84546791     0.21100
C137        C  0.08648822  0.36205044  0.80821140    -0.53800
C138        C  0.08025511  0.37601957  0.81882961     0.10200
C139        C  0.08011521  0.34975236  0.86337932    -0.53300
C140        C  0.07403402  0.36372548  0.87460639     0.10800
H141        H  0.05387190  0.34118000  0.80427778     0.15300
H142        H  0.06211996  0.38551920  0.85462597     0.01100
H143        H  0.09637765  0.36181856  0.79085181     0.15600
H144        H  0.08559141  0.34121667  0.88085783     0.15400
C145        C  0.35081463  0.90555108  0.18865004     0.87200
C146        C  0.36647954  0.90069940  0.20611006    -0.53000
C147        C  0.37944815  0.90655921  0.18989188     0.10100
C148        C  0.37562539  0.91672810  0.15753400     0.21100
C149        C  0.35121699  0.92359593  0.18591722    -0.53800
C150        C  0.36416528  0.92936842  0.17005007     0.10200
C151        C  0.35300738  0.90011619  0.15085779    -0.53300
C152        C  0.36563473  0.90626562  0.13416115     0.10800
H153        H  0.36724981  0.89362216  0.22964521     0.15300
H154        H  0.38611118  0.92171573  0.14480456     0.01100
H155        H  0.34198749  0.93121085  0.19575891     0.15600
H156        H  0.34580951  0.89156014  0.13812134     0.15400
C157        C  0.35031430  0.90948973  0.83307903     0.87200
C158        C  0.35377493  0.92704605  0.83761060    -0.53000
C159        C  0.36859641  0.93022380  0.84757904     0.10100
C160        C  0.37905914  0.91565658  0.85235281     0.21100
C161        C  0.36293633  0.90375669  0.80781607    -0.53800
C162        C  0.37789673  0.90709821  0.81761967     0.10200
C163        C  0.35512353  0.90236014  0.86862219    -0.53300
C164        C  0.37019842  0.90561383  0.87916404     0.10800
H165        H  0.34534862  0.93684974  0.83318015     0.15300
H166        H  0.39129897  0.91838511  0.85907773     0.01100
H167        H  0.36019620  0.89792201  0.78373027     0.15600
H168        H  0.34682215  0.89632042  0.88510148     0.15400
C169        C  0.35525267  0.07361129  0.16952069     0.87200
C170        C  0.35383130  0.05573345  0.17215259    -0.53000
C171        C  0.36664862  0.04737841  0.16151398     0.10100
C172        C  0.37998109  0.05793068  0.14817815     0.21100
C173        C  0.37050430  0.07706003  0.18977291    -0.53800
C174        C  0.38333375  0.06884766  0.17862311     0.10200
C175        C  0.35957401  0.07688086  0.13149454    -0.53300
C176        C  0.37232270  0.06856267  0.12002741     0.10800
H177        H  0.34317445  0.05030499  0.18090227     0.15300
H178        H  0.39053542  0.05140285  0.13924042     0.01100
H179        H  0.37154844  0.08504378  0.21115595     0.15600
H180        H  0.35265568  0.08448908  0.11442440     0.15400
C181        C  0.35952084  0.07026501  0.80717224     0.87200
C182        C  0.37455957  0.07674869  0.79034205    -0.53000
C183        C  0.38825959  0.07009826  0.80304832     0.10100
C184        C  0.38558493  0.05770707  0.83198516     0.21100
C185        C  0.36121003  0.05258524  0.80197116    -0.53800
C186        C  0.37454922  0.04581678  0.81537595     0.10200
C187        C  0.36213395  0.07283265  0.84617601    -0.53300
C188        C  0.37551387  0.06604533  0.85940718     0.10800
H189        H  0.37468724  0.08527601  0.76934909     0.15300
H190        H  0.39641160  0.05236957  0.84302005     0.01100
H191        H  0.35224044  0.04589909  0.78897566     0.15600
H192        H  0.35387510  0.07919518  0.86225983     0.15400
C193        C  0.64452041  0.91600923  0.17511267     0.87200
C194        C  0.63931622  0.91168399  0.13829739    -0.53000
C195        C  0.62582727  0.91905101  0.12723423     0.10100
C196        C  0.61836874  0.92972754  0.15442329     0.21100
C197        C  0.64481653  0.93398701  0.17539735    -0.53800
C198        C  0.63132852  0.94129293  0.16420975     0.10200
C199        C  0.63008933  0.91198748  0.19758828    -0.53300
C200        C  0.61647916  0.91914341  0.18661177     0.10800
H201        H  0.64581606  0.90357086  0.12214405     0.15300
H202        H  0.60720080  0.93531828  0.14561458     0.01100
H203        H  0.65478519  0.94027450  0.18532293     0.15600
H204        H  0.63009871  0.90408536  0.21972973     0.15400
C205        C  0.63890421  0.91032740  0.81892826     0.87200
C206        C  0.62296455  0.90620225  0.80230546    -0.53000
C207        C  0.61008200  0.91269397  0.81831127     0.10100
C208        C  0.61453984  0.92254184  0.85026096     0.21100
C209        C  0.63843282  0.92832496  0.81914372    -0.53800
C210        C  0.62600022  0.93466789  0.83615716     0.10200
C211        C  0.63725503  0.90515446  0.85699128    -0.53300
C212        C  0.62474783  0.91172346  0.87381018     0.10800
H213        H  0.62174535  0.89962143  0.77870850     0.15300
H214        H  0.60453380  0.92791258  0.86398889     0.01100
H215        H  0.64709534  0.93553356  0.80632054     0.15600
H216        H  0.64543898  0.89698269  0.86931880     0.15400
C217        C  0.64698836  0.08096140  0.18787404     0.87200
C218        C  0.63239189  0.08662409  0.20749930    -0.53000
C219        C  0.61849541  0.08157088  0.19401839     0.10100
C220        C  0.62041599  0.07152569  0.16108753     0.21100
C221        C  0.64527318  0.06300599  0.18636683    -0.53800
C222        C  0.63140937  0.05807523  0.17269322     0.10200
C223        C  0.64384624  0.08652051  0.15015208    -0.53300
C224        C  0.63041058  0.08111192  0.13545935     0.10800
H225        H  0.63299637  0.09302563  0.23157149     0.15300
H226        H  0.60912010  0.06748744  0.15028834     0.01100
H227        H  0.65430036  0.05482949  0.19553733     0.15600
H228        H  0.65202136  0.09293381  0.13412835     0.15400
C229        C  0.65319292  0.07489623  0.82438477     0.87200
C230        C  0.65194464  0.05686898  0.82429095    -0.53000
C231        C  0.63799799  0.05112883  0.83598278     0.10100
C232        C  0.62679431  0.06414429  0.84865539     0.21100
C233        C  0.63849842  0.08098292  0.80474605    -0.53800
C234        C  0.62472641  0.07517720  0.81712726     0.10200
C235        C  0.65000971  0.07905115  0.86259292    -0.53300
C236        C  0.63627558  0.07345389  0.87526352     0.10800
H237        H  0.66158171  0.04939424  0.81614040     0.15300
H238        H  0.61544182  0.05995695  0.85881755     0.01100
H239        H  0.63900045  0.08849236  0.78191369     0.15600
H240        H  0.65810769  0.08481980  0.87965979     0.15400
In241      In  0.91144660  0.20493413  0.29500493     1.36900
C242        C  0.94197045  0.20035185  0.28047430     0.78300
O243        O  0.90545000  0.22176523  0.25135776    -0.60200
O244        O  0.91182155  0.23130336  0.29962714    -0.51100
C245        C  0.89050833  0.18360002  0.27503128     0.71000
O246        O  0.90506006  0.18090545  0.27624694    -0.45900
C247        C  0.90675455  0.20259162  0.36331445     0.75700
O248        O  0.93161255  0.20192358  0.25720969    -0.57800
O249        O  0.91498166  0.19299755  0.34641361    -0.47900
O250        O  0.93667893  0.20084039  0.31082433    -0.54200
C251        C  0.90771555  0.23399222  0.26862219     0.85800
O252        O  0.88676140  0.19751455  0.28203827    -0.56100
O253        O  0.90072401  0.21350568  0.34501630    -0.59400
In254      In  0.78772697  0.07771978  0.30223090     1.36900
C255        C  0.79157687  0.04662705  0.29882267     0.78300
O256        O  0.80166105  0.07889503  0.35157440    -0.60200
O257        O  0.77694987  0.08133706  0.35422055    -0.51100
C258        C  0.80864404  0.09903256  0.28043092     0.71000
O259        O  0.81094888  0.08451381  0.27689880    -0.45900
C260        C  0.75946352  0.08288961  0.27320054     0.75700
O261        O  0.79669776  0.05591885  0.27588904    -0.57800
O262        O  0.76406669  0.08938709  0.30038920    -0.47900
O263        O  0.78454322  0.05333517  0.32321753    -0.54200
C264        C  0.78978668  0.08096970  0.37046792     0.85800
O265        O  0.79533186  0.10243449  0.29236360    -0.56100
O266        O  0.76984229  0.07445905  0.25910276    -0.59400
In267      In  0.91044840  0.20816733  0.69432784     1.36900
C268        C  0.94157327  0.20611172  0.70609437     0.78300
O269        O  0.91037883  0.19289276  0.64635797    -0.60200
O270        O  0.90738389  0.21738305  0.63984770    -0.51100
C271        C  0.88947713  0.18683151  0.71540046     0.71000
O272        O  0.90408672  0.18477070  0.71849538    -0.45900
C273        C  0.90394805  0.23638371  0.72235875     0.75700
O274        O  0.93166646  0.20090562  0.72732417    -0.57800
O275        O  0.90039289  0.23291923  0.69169163    -0.47900
O276        O  0.93547862  0.21196307  0.67900276    -0.54200
C277        C  0.90828600  0.20421996  0.62541583     0.85800
O278        O  0.88564175  0.20019809  0.70354488    -0.56100
O279        O  0.90998230  0.22507737  0.73930936    -0.59400
In280      In  0.79003230  0.07768775  0.69837483     1.36900
C281        C  0.78912140  0.04670800  0.70970057     0.78300
O282        O  0.77370307  0.07789705  0.74351007    -0.60200
O283        O  0.76545233  0.08760687  0.69573404    -0.51100
C284        C  0.81166668  0.09848274  0.71880517     0.71000
O285        O  0.79713665  0.10099915  0.72087382    -0.45900
C286        C  0.79309898  0.08012827  0.63009514     0.75700
O287        O  0.78123170  0.05382272  0.68660917    -0.57800
O288        O  0.78287143  0.08763703  0.64689696    -0.47900
O289        O  0.79780097  0.05553473  0.72734527    -0.54200
C290        C  0.76234314  0.08405890  0.72681140     0.85800
O291        O  0.81513910  0.08486669  0.70881216    -0.56100
O292        O  0.80194024  0.07144139  0.64846086    -0.59400
In293      In  0.90984158  0.77871395  0.70066616     1.36900
C294        C  0.93975480  0.78664187  0.71248225     0.78300
O295        O  0.91034553  0.76295396  0.74877526    -0.60200
O296        O  0.91078059  0.75262302  0.69928578    -0.51100
C297        C  0.88592922  0.79881635  0.71340707     0.71000
O298        O  0.89998030  0.80293661  0.71086740    -0.45900
C299        C  0.90641624  0.77686863  0.63200612     0.75700
O300        O  0.92980199  0.78585746  0.73656746    -0.57800
O301        O  0.91432194  0.78721083  0.64688267    -0.47900
O302        O  0.93423585  0.78371162  0.68300653    -0.54200
C303        C  0.91113728  0.75046830  0.73164112     0.85800
O304        O  0.88426059  0.78421832  0.71214068    -0.56100
O305        O  0.89995442  0.76732399  0.65254729    -0.59400
In306      In  0.77499364  0.90012039  0.69270036     1.36900
C307        C  0.78241946  0.92954975  0.70916434     0.78300
O308        O  0.78694761  0.90257789  0.64124876    -0.60200
O309        O  0.76343646  0.89517536  0.64151356    -0.51100
C310        C  0.79597512  0.87786936  0.71090919     0.71000
O311        O  0.79574653  0.89111769  0.72502618    -0.45900
C312        C  0.74553932  0.89570177  0.71493927     0.75700
O313        O  0.77471222  0.92074254  0.72907602    -0.57800
O314        O  0.75713983  0.88809977  0.72741003    -0.47900
O315        O  0.78669833  0.92310281  0.68161203    -0.54200
C316        C  0.77531486  0.89842000  0.62362989     0.85800
O317        O  0.78470731  0.87579391  0.69041265    -0.56100
O318        O  0.74920145  0.90550892  0.69170839    -0.59400
In319      In  0.91228944  0.77538937  0.30179171     1.36900
C320        C  0.94331994  0.78009645  0.29809654     0.78300
O321        O  0.91000219  0.78841173  0.35228583    -0.60200
O322        O  0.90582981  0.76406327  0.35246838    -0.51100
C323        C  0.89068091  0.79627677  0.27725417     0.71000
O324        O  0.88808499  0.78179503  0.27949153    -0.45900
C325        C  0.91103054  0.74707800  0.27203422     0.75700
O326        O  0.93390231  0.78408350  0.27410979    -0.57800
O327        O  0.90465780  0.75026326  0.30057130    -0.47900
O328        O  0.93677435  0.77382553  0.32382321    -0.54200
C329        C  0.90666262  0.77640374  0.36994518     0.85800
O330        O  0.90449494  0.79974441  0.28533406    -0.56100
O331        O  0.91730197  0.75873474  0.25750401    -0.59400
In332      In  0.78331092  0.89967619  0.29481228     1.36900
C333        C  0.79316834  0.92902400  0.28456449     0.78300
O334        O  0.76639498  0.89586117  0.25028383    -0.60200
O335        O  0.75714665  0.90015013  0.29997030    -0.51100
C336        C  0.80350854  0.87723950  0.27487575     0.71000
O337        O  0.80610770  0.89168690  0.27103318    -0.45900
C338        C  0.78079028  0.89634606  0.36344395     0.75700
O339        O  0.79780730  0.92030661  0.30926949    -0.57800
O340        O  0.78835447  0.88666441  0.34537991    -0.47900
O341        O  0.78455605  0.92220345  0.26302542    -0.54200
C342        C  0.75429786  0.89805827  0.26841876     0.85800
O343        O  0.79007381  0.87431949  0.28663992    -0.56100
O344        O  0.77476817  0.90756000  0.34624647    -0.59400
In345      In  0.08910604  0.21086091  0.69359507     1.36900
C346        C  0.05995453  0.20206008  0.70943592     0.78300
O347        O  0.09359694  0.22775169  0.73672508    -0.60200
O348        O  0.08777637  0.23713924  0.68723865    -0.51100
C349        C  0.11133273  0.18932377  0.70973787     0.71000
O350        O  0.09740228  0.18594961  0.70216389    -0.45900
C351        C  0.09185406  0.21414411  0.62529584     0.75700
O352        O  0.06718321  0.19752704  0.68295048    -0.57800
O353        O  0.10357367  0.21155165  0.64465753    -0.47900
O354        O  0.06831356  0.20976886  0.73001066    -0.54200
C355        C  0.09100949  0.23990810  0.71841731     0.85800
O356        O  0.11358779  0.20383230  0.71191551    -0.56100
O357        O  0.07903825  0.21535262  0.64112841    -0.59400
In358      In  0.21880427  0.08398491  0.69178528     1.36900
C359        C  0.21290155  0.05382532  0.70550695     0.78300
O360        O  0.20604544  0.08326083  0.64069582    -0.60200
O361        O  0.22953331  0.09096037  0.64093387    -0.51100
C362        C  0.19758720  0.10610517  0.70817672     0.71000
O363        O  0.19590067  0.09185890  0.71619594    -0.45900
C364        C  0.24824682  0.08651979  0.71630191     0.75700
O365        O  0.21605808  0.06334041  0.72922390    -0.57800
O366        O  0.23653412  0.09201146  0.73234963    -0.47900
O367        O  0.21230567  0.05993995  0.67572128    -0.54200
C368        C  0.21746185  0.08811964  0.62318128     0.85800
O369        O  0.21070744  0.10903855  0.69492376    -0.56100
O370        O  0.24470012  0.08008710  0.68818682    -0.59400
In371      In  0.08873688  0.21537692  0.29576424     1.36900
C372        C  0.05869382  0.21084612  0.27863824     0.78300
O373        O  0.07988597  0.20777515  0.34799358    -0.60200
O374        O  0.09973409  0.22228960  0.34611814    -0.51100
C375        C  0.11132282  0.19406633  0.28050892     0.71000
O376        O  0.09867236  0.19054634  0.29512253    -0.45900
C377        C  0.09202676  0.24432000  0.26873570     0.75700
O378        O  0.06971460  0.20334290  0.26420278    -0.57800
O379        O  0.09405245  0.24108381  0.30041721    -0.47900
O380        O  0.06328940  0.22056626  0.30057479    -0.54200
C381        C  0.09000457  0.21514549  0.36482065     0.85800
O382        O  0.11202479  0.20835309  0.27208181    -0.56100
O383        O  0.08909726  0.23250477  0.25049037    -0.59400
In384      In  0.21874621  0.08979044  0.29226104     1.36900
C385        C  0.21136647  0.05996799  0.27801582     0.78300
O386        O  0.23636262  0.09697663  0.25190157    -0.60200
O387        O  0.24471633  0.08605391  0.29821805    -0.51100
C388        C  0.19953306  0.11382359  0.27268055     0.71000
O389        O  0.19929105  0.10075359  0.25770399    -0.45900
C390        C  0.21839469  0.09141116  0.36124565     0.75700
O391        O  0.22352929  0.06645177  0.26681496    -0.57800
O392        O  0.22784730  0.09903461  0.34287163    -0.47900
O393        O  0.20238497  0.06912450  0.29428907    -0.54200
C394        C  0.24812065  0.09198040  0.26915701     0.85800
O395        O  0.21009620  0.11460035  0.29534339    -0.56100
O396        O  0.20939239  0.08280973  0.34419215    -0.59400
In397      In  0.21191617  0.90488731  0.71346847     1.36900
C398        C  0.21027887  0.93601581  0.71875717     0.78300
O399        O  0.22737667  0.90613394  0.76139515    -0.60200
O400        O  0.23570120  0.89367526  0.71799269    -0.51100
C401        C  0.19026525  0.88424465  0.73344882     0.71000
O402        O  0.18718881  0.89861008  0.72891706    -0.45900
C403        C  0.21156241  0.90220924  0.64446628     0.75700
O404        O  0.21905462  0.92885276  0.69795756    -0.57800
O405        O  0.19960168  0.90632792  0.66132629    -0.47900
O406        O  0.20235339  0.92711938  0.73811331    -0.54200
C407        C  0.23862826  0.89859993  0.74794047     0.85800
O408        O  0.20449676  0.88069164  0.72920005    -0.56100
O409        O  0.22336131  0.89906167  0.66315191    -0.59400
In410      In  0.08829454  0.77809596  0.72012862     1.36900
C411        C  0.05717163  0.78225091  0.72362210     0.78300
O412        O  0.08511002  0.78996239  0.66849960    -0.60200
O413        O  0.09133790  0.76575180  0.67001370    -0.51100
C414        C  0.11045734  0.79915833  0.73372799     0.71000
O415        O  0.09683143  0.80008721  0.74629405    -0.45900
C416        C  0.09436616  0.75237035  0.75834598     0.75700
O417        O  0.06663744  0.79073898  0.74009091    -0.57800
O418        O  0.10161036  0.75546344  0.73085333    -0.47900
O419        O  0.06373156  0.77143639  0.70683634    -0.54200
C420        C  0.08796070  0.77768508  0.65164930     0.85800
O421        O  0.11272839  0.78721114  0.71563035    -0.56100
O422        O  0.08484143  0.76292214  0.76756794    -0.59400
In423      In  0.21310230  0.91290325  0.31593978     1.36900
C424        C  0.20556466  0.94311354  0.30234604     0.78300
O425        O  0.20975206  0.89916757  0.36498438    -0.60200
O426        O  0.22172226  0.92067721  0.36819757    -0.51100
C427        C  0.18957323  0.89328288  0.30084873     0.71000
O428        O  0.18733699  0.90633937  0.31503328    -0.45900
C429        C  0.24147750  0.90614517  0.28791891     0.75700
O430        O  0.20714882  0.93302752  0.27893720    -0.57800
O431        O  0.23802703  0.90346833  0.31908433    -0.47900
O432        O  0.20733236  0.93758042  0.33248568    -0.54200
C433        C  0.21629367  0.90898132  0.38423915     0.85800
O434        O  0.20363813  0.89085876  0.29229687    -0.56100
O435        O  0.23030037  0.91220671  0.27069957    -0.59400
In436      In  0.09037850  0.78293094  0.32225562     1.36900
C437        C  0.06077458  0.78897992  0.30200119     0.78300
O438        O  0.09794919  0.76619661  0.28030188    -0.60200
O439        O  0.09474487  0.75702213  0.33074659    -0.51100
C440        C  0.11073710  0.80551980  0.30481654     0.71000
O441        O  0.09608605  0.80722611  0.30140847    -0.45900
C442        C  0.09015938  0.78138032  0.39145499     0.75700
O443        O  0.07011172  0.78077971  0.28435798    -0.57800
O444        O  0.09999315  0.78930112  0.37475103    -0.47900
O445        O  0.06700622  0.79490665  0.32835043    -0.54200
C446        C  0.09778390  0.75413126  0.29958750     0.85800
O447        O  0.11486836  0.79200842  0.31532416    -0.56100
O448        O  0.08047899  0.77435431  0.37269032    -0.59400
C449        C  0.92653777  0.63579085  0.18498497     0.87200
C450        C  0.92166935  0.62091211  0.20527973    -0.53000
C451        C  0.92864506  0.60728031  0.19391610     0.10100
C452        C  0.93956196  0.60979223  0.16261641     0.21100
C453        C  0.94453483  0.63545667  0.18606340    -0.53800
C454        C  0.95133473  0.62191387  0.17481656     0.10200
C455        C  0.92255898  0.63187381  0.14683003    -0.53300
C456        C  0.92945655  0.61842745  0.13510893     0.10800
H457        H  0.91330961  0.62118158  0.22634408     0.15300
H458        H  0.94528575  0.59899396  0.15272778     0.01100
H459        H  0.95140290  0.64526401  0.19490070     0.15600
H460        H  0.91565989  0.63916491  0.12930065     0.15400
C461        C  0.93015475  0.63880214  0.82129290     0.87200
C462        C  0.94781851  0.63439507  0.81940648    -0.53000
C463        C  0.95175968  0.62039947  0.83475207     0.10100
C464        C  0.93770882  0.61175604  0.84991186     0.21100
C465        C  0.92232398  0.62468710  0.80400313    -0.53800
C466        C  0.92623707  0.61043704  0.81888422     0.10200
C467        C  0.92604361  0.63742679  0.85981079    -0.53300
C468        C  0.93029263  0.62351144  0.87511368     0.10800
H469        H  0.95661796  0.64185772  0.80791736     0.15300
H470        H  0.94101161  0.60037962  0.86244417     0.01100
H471        H  0.91616552  0.62561069  0.77947853     0.15600
H472        H  0.92080165  0.64702554  0.87409467     0.15400
C473        C  0.09022262  0.64453152  0.20397083     0.87200
C474        C  0.07246794  0.64159556  0.20455123    -0.53000
C475        C  0.06804118  0.62792509  0.18971208     0.10100
C476        C  0.08185317  0.61793698  0.17708441     0.21100
C477        C  0.09708039  0.62982422  0.22316135    -0.53800
C478        C  0.09250528  0.61584747  0.20935617     0.10200
C479        C  0.09515560  0.64244694  0.16607566    -0.53300
C480        C  0.09053616  0.62873593  0.15162845     0.10800
H481        H  0.06406989  0.64957847  0.21621514     0.15300
H482        H  0.07822083  0.60666777  0.16583936     0.01100
H483        H  0.10320408  0.63016267  0.24773869     0.15600
H484        H  0.10151445  0.65133335  0.15184336     0.15400
C485        C  0.08921278  0.64070658  0.84800890     0.87200
C486        C  0.09435350  0.62709623  0.82426938    -0.53000
C487        C  0.08982042  0.61262848  0.83564224     0.10100
C488        C  0.08047182  0.61300996  0.86970777     0.21100
C489        C  0.07137143  0.63883935  0.85102966    -0.53800
C490        C  0.06671156  0.62449501  0.86258329     0.10200
C491        C  0.09583829  0.63586951  0.88372819    -0.53300
C492        C  0.09105454  0.62155993  0.89558739     0.10800
H493        H  0.10087592  0.62830527  0.80045523     0.15300
H494        H  0.07661093  0.60132684  0.87890191     0.01100
H495        H  0.06310949  0.64804263  0.84328766     0.15600
H496        H  0.10276791  0.64363327  0.89931305     0.15400
C497        C  0.08834140  0.63263968  0.05316385    -0.13600
C498        C  0.09156378  0.61728542  0.04313313     0.16700
C499        C  0.09512352  0.60579755  0.06850829     0.03000
C500        C  0.09521017  0.60984701  0.10366353    -0.12200
C501        C  0.09181262  0.62528114  0.11395991    -0.03200
C502        C  0.08843945  0.63676362  0.08801900     0.02300
C503        C  0.09220682  0.61420404  0.00566384     0.09100
N504        N  0.09857536  0.59001883  0.05897635     0.65500
H505        H  0.09787105  0.60085847  0.12298237     0.18400
N506        N  0.08445788  0.65256696  0.09626163     0.75900
H507        H  0.08570285  0.64155537  0.03362069     0.09900
C508        C  0.07844731  0.61156798  0.98649684     0.03600
C509        C  0.07872072  0.61271856  0.95029844    -0.05100
C510        C  0.09244835  0.61693623  0.93274312    -0.23500
C511        C  0.10641914  0.61883803  0.95200819     0.12800
C512        C  0.10617546  0.61734989  0.98818216    -0.12700
N513        N  0.06383697  0.60910074  0.00352565     0.64500
H514        H  0.06781239  0.61150933  0.93615106     0.12400
N515        N  0.12081543  0.62280503  0.93550131     0.61100
H516        H  0.11674783  0.61962563  0.00286523     0.08500
O517        O  0.07017854  0.65642312  0.09890077    -0.40300
O518        O  0.09438259  0.66308047  0.09037499    -0.39500
O519        O  0.11257847  0.58504495  0.05974041    -0.39500
O520        O  0.08756228  0.58040924  0.05616894    -0.37200
O521        O  0.12615140  0.63640988  0.93900838    -0.38100
O522        O  0.12990485  0.61194369  0.92577252    -0.34300
O523        O  0.05431076  0.62044060  0.00675545    -0.35700
O524        O  0.05914569  0.59530265  0.00837141    -0.40000
C525        C  0.99514403  0.61228920  0.82066871    -0.13600
C526        C  0.00058276  0.61115503  0.85500831     0.16700
C527        C  0.98956484  0.61122986  0.88225623     0.03000
C528        C  0.97354764  0.61312324  0.87480480    -0.12200
C529        C  0.96827443  0.61536337  0.84061358    -0.03200
C530        C  0.97915228  0.61443524  0.81329400     0.02300
C531        C  0.01763498  0.61288989  0.86162563     0.09100
N532        N  0.99448907  0.61010139  0.91767498     0.65500
H533        H  0.96529934  0.61378981  0.89603770     0.18400
N534        N  0.97418847  0.61595443  0.77797799     0.75900
H535        H  0.00343859  0.61248228  0.79948916     0.09900
C536        C  0.02902676  0.60244515  0.84830412     0.03600
C537        C  0.04500670  0.60605326  0.85058027    -0.05100
C538        C  0.04989742  0.62016061  0.86518288    -0.23500
C539        C  0.03845850  0.63037762  0.87930471     0.12800
C540        C  0.02257898  0.62664691  0.87741522    -0.12700
N541        N  0.02455313  0.58840123  0.83139809     0.64500
H542        H  0.05355998  0.59813835  0.83926712     0.12400
N543        N  0.04262824  0.64478936  0.89502985     0.61100
H544        H  0.01397042  0.63497571  0.88699012     0.08500
O545        O  0.97147386  0.60376472  0.76094028    -0.40300
O546        O  0.97605833  0.62878259  0.76201606    -0.39500
O547        O  0.99526806  0.62239779  0.93537787    -0.39500
O548        O  0.99412783  0.59698075  0.93306738    -0.37200
O549        O  0.04662974  0.64472930  0.92655704    -0.38100
O550        O  0.03831661  0.65753425  0.88071970    -0.34300
O551        O  0.02456579  0.58798849  0.79871487    -0.35700
O552        O  0.02434285  0.57571663  0.84853255    -0.40000
C553        C  0.99288524  0.60715931  0.19273260    -0.13600
C554        C  0.00153823  0.61926690  0.17764271     0.16700
C555        C  0.99368965  0.63126341  0.15877923     0.03000
C556        C  0.97733788  0.63154231  0.15711112    -0.12200
C557        C  0.96857455  0.61982728  0.17341798    -0.03200
C558        C  0.97647739  0.60718969  0.19024113     0.02300
C559        C  0.01873616  0.61946337  0.18194079     0.09100
N560        N  0.00216771  0.64356596  0.14227591     0.65500
H561        H  0.97141431  0.64115580  0.14356360     0.18400
N562        N  0.96808472  0.59466970  0.20613099     0.75900
H563        H  0.99889503  0.59772662  0.20669412     0.09900
C564        C  0.02564847  0.62286005  0.21412382     0.03600
C565        C  0.04185686  0.62481578  0.21641789    -0.05100
C566        C  0.05139238  0.62334682  0.18706456    -0.23500
C567        C  0.04455152  0.61883924  0.15534473     0.12800
C568        C  0.02829258  0.61709507  0.15303448    -0.12700
N569        N  0.01626880  0.62526465  0.24422094     0.64500
H570        H  0.04696944  0.62799655  0.24106979     0.12400
N571        N  0.05367309  0.61693524  0.12469222     0.61100
H572        H  0.02303734  0.61427506  0.12829608     0.08500
O573        O  0.96661049  0.59436403  0.23863685    -0.40300
O574        O  0.96609568  0.58222832  0.18945761    -0.39500
O575        O  0.00389829  0.64351157  0.10981396    -0.39500
O576        O  0.00532789  0.65574239  0.15896442    -0.37200
O577        O  0.05827788  0.60334902  0.11662697    -0.38100
O578        O  0.05295244  0.62745213  0.10144589    -0.34300
O579        O  0.01644022  0.61507063  0.26820664    -0.35700
O580        O  0.01048560  0.63868258  0.24983067    -0.40000
C581        C  0.91677147  0.61190443  0.04159605    -0.13600
C582        C  0.93117811  0.61290800  0.02430490     0.16700
C583        C  0.94505861  0.61412343  0.04420151     0.03000
C584        C  0.94425411  0.61487349  0.08045122    -0.12200
C585        C  0.92979198  0.61470518  0.09754862    -0.03200
C586        C  0.91596548  0.61288151  0.07785617     0.02300
C587        C  0.93127296  0.61500261  0.98586437     0.09100
N588        N  0.96002628  0.61516296  0.02788409     0.65500
H589        H  0.95496349  0.61637055  0.09519747     0.18400
N590        N  0.90099188  0.61227688  0.09420661     0.75900
H591        H  0.90598863  0.61120375  0.02678606     0.09900
C592        C  0.92474151  0.60396554  0.96318163     0.03600
C593        C  0.92444159  0.60695271  0.92725939    -0.05100
C594        C  0.93029627  0.62095252  0.91336965    -0.23500
C595        C  0.93677883  0.63200870  0.93613230     0.12800
C596        C  0.93713518  0.62897276  0.97186843    -0.12700
N597        N  0.91862240  0.58956045  0.97612350     0.64500
H598        H  0.91954279  0.59831131  0.91013574     0.12400
N599        N  0.94364028  0.64611905  0.92337051     0.61100
H600        H  0.94193549  0.63770524  0.98889536     0.08500
O601        O  0.89482562  0.59913749  0.09968689    -0.40300
O602        O  0.89255337  0.62452897  0.09534981    -0.39500
O603        O  0.96751074  0.62778516  0.02923111    -0.39500
O604        O  0.96694168  0.60282737  0.01812733    -0.37200
O605        O  0.93618856  0.65893476  0.92596285    -0.38100
O606        O  0.95812697  0.64628228  0.91694073    -0.34300
O607        O  0.90397712  0.58771605  0.97685139    -0.35700
O608        O  0.92763434  0.57777241  0.97943807    -0.40000
C609        C  0.09001470  0.68952708  0.21546622    -0.13600
C610        C  0.10084942  0.69159562  0.24221034     0.16700
C611        C  0.10868781  0.67824578  0.25615181     0.03000
C612        C  0.10531260  0.66322509  0.24378974    -0.12200
C613        C  0.09414975  0.66100439  0.21725562    -0.03200
C614        C  0.08680462  0.67467610  0.20250493     0.02300
C615        C  0.10239384  0.70752178  0.25738297     0.09100
N616        N  0.12036421  0.67975101  0.28251297     0.65500
H617        H  0.11182042  0.65345955  0.25494256     0.18400
N618        N  0.07608590  0.67395929  0.17396737     0.75900
H619        H  0.08355636  0.69953967  0.20496161     0.09900
C620        C  0.10493440  0.72102289  0.23660288     0.03600
C621        C  0.10396971  0.73597068  0.25121978    -0.05100
C622        C  0.10024610  0.73795935  0.28632081    -0.23500
C623        C  0.09795478  0.72442757  0.30722836     0.12800
C624        C  0.09913372  0.70948219  0.29268421    -0.12700
N625        N  0.10819682  0.71983630  0.20041561     0.64500
H626        H  0.10576295  0.74612093  0.23462597     0.12400
N627        N  0.09337821  0.72556652  0.34270253     0.61100
H628        H  0.09653063  0.69936509  0.30877235     0.08500
O629        O  0.08038068  0.67955966  0.14520164    -0.40300
O630        O  0.06158483  0.67346864  0.18014269    -0.39500
O631        O  0.11744292  0.67527206  0.31307206    -0.39500
O632        O  0.13436381  0.68225701  0.27389860    -0.37200
O633        O  0.07901384  0.72692023  0.34996621    -0.38100
O634        O  0.10301115  0.72160907  0.36626232    -0.34300
O635        O  0.09777686  0.72395443  0.17866776    -0.35700
O636        O  0.12225191  0.71862994  0.19065043    -0.40000
C637        C  0.15188825  0.86987852  0.31098526    -0.13600
C638        C  0.15568647  0.85614005  0.29299915     0.16700
C639        C  0.17008259  0.85538372  0.27508990     0.03000
C640        C  0.18071302  0.86774045  0.27744297    -0.12200
C641        C  0.17717382  0.88129117  0.29637971    -0.03200
C642        C  0.16233856  0.88243186  0.31253799     0.02300
C643        C  0.14454303  0.84276598  0.29391227     0.09100
N644        N  0.17378326  0.84254121  0.25299694     0.65500
H645        H  0.19181190  0.86674372  0.26403728     0.18400
N646        N  0.15776657  0.89606509  0.33129699     0.75900
H647        H  0.14079964  0.87077143  0.32447660     0.09900
C648        C  0.14886884  0.82793887  0.30795782     0.03600
C649        C  0.13785299  0.81589394  0.30966370    -0.05100
C650        C  0.12222758  0.81832712  0.29885990    -0.23500
C651        C  0.11787528  0.83322442  0.28506653     0.12800
C652        C  0.12902001  0.84516034  0.28247360    -0.12700
N653        N  0.16395763  0.82527657  0.32341320     0.64500
H654        H  0.14141905  0.80475402  0.32122050     0.12400
N655        N  0.10213979  0.83660698  0.27422971     0.61100
H656        H  0.12544165  0.85650420  0.27196086     0.08500
O657        O  0.15921612  0.89610263  0.36385732    -0.40300
O658        O  0.14933557  0.90645730  0.31652267    -0.39500
O659        O  0.16680553  0.84157463  0.22420851    -0.39500
O660        O  0.18630876  0.83476078  0.25798972    -0.37200
O661        O  0.09296874  0.84370282  0.29447667    -0.38100
O662        O  0.09852072  0.83553764  0.24261447    -0.34300
O663        O  0.16658356  0.83049529  0.35330577    -0.35700
O664        O  0.17283761  0.81466649  0.31166019    -0.40000
C665        C  0.10955195  0.71276794  0.79115127    -0.13600
C666        C  0.09538884  0.70547626  0.79938950     0.16700
C667        C  0.08122641  0.71414818  0.79647899     0.03000
C668        C  0.08142696  0.72981261  0.78549958    -0.12200
C669        C  0.09547331  0.73693419  0.77589300    -0.03200
C670        C  0.10968748  0.72834513  0.77907114     0.02300
C671        C  0.09549326  0.68905155  0.81242111     0.09100
N672        N  0.06645190  0.70687344  0.80212549     0.65500
H673        H  0.07038085  0.73613174  0.78226990     0.18400
N674        N  0.12435520  0.73539671  0.77125221     0.75900
H675        H  0.12054230  0.70635552  0.79420165     0.09900
C676        C  0.10087624  0.67656000  0.79205258     0.03600
C677        C  0.09964567  0.66108977  0.80427063    -0.05100
C678        C  0.09308101  0.65761469  0.83699019    -0.23500
C679        C  0.08859211  0.67047634  0.85813197     0.12800
C680        C  0.08973392  0.68586842  0.84556746    -0.12700
N681        N  0.10677364  0.67932964  0.75795449     0.64500
H682        H  0.10337528  0.65201731  0.78691370     0.12400
N683        N  0.08245042  0.66823970  0.89224760     0.61100
H684        H  0.08588103  0.69545563  0.86177170     0.08500
O685        O  0.13146147  0.73167584  0.74388621    -0.40300
O686        O  0.13173078  0.74222012  0.79497660    -0.39500
O687        O  0.05761832  0.71168857  0.82600166    -0.39500
O688        O  0.06099291  0.69799765  0.77926812    -0.37200
O689        O  0.06795339  0.67028225  0.89698407    -0.38100
O690        O  0.09160488  0.66933936  0.91786252    -0.34300
O691        O  0.12138660  0.67965587  0.75314932    -0.35700
O692        O  0.09766298  0.67840994  0.73222918    -0.40000
C693        C  0.07924158  0.78769423  0.55739812    -0.13600
C694        C  0.08808344  0.77610037  0.54065004     0.16700
C695        C  0.09646455  0.76480725  0.56052398     0.03000
C696        C  0.09602452  0.76539496  0.59668854    -0.12200
C697        C  0.08746415  0.77719023  0.61352270    -0.03200
C698        C  0.07879566  0.78829856  0.59357209     0.02300
C699        C  0.08911755  0.77675048  0.50251226     0.09100
N700        N  0.10610676  0.75317601  0.54449902     0.65500
H701        H  0.10280314  0.75682897  0.61164566     0.18400
N702        N  0.06913800  0.79995234  0.60954719     0.75900
H703        H  0.07267179  0.79634780  0.54222395     0.09900
C704        C  0.08169070  0.76572108  0.48144170     0.03600
C705        C  0.08229052  0.76740972  0.44533562    -0.05100
C706        C  0.09002856  0.78007500  0.42972422    -0.23500
C707        C  0.09744540  0.79110817  0.45101785     0.12800
C708        C  0.09700018  0.78928729  0.48707291    -0.12700
N709        N  0.07286139  0.75322410  0.49624051     0.64500
H710        H  0.07647104  0.75885998  0.42944427     0.12400
N711        N  0.10470043  0.80468826  0.43666687     0.61100
H712        H  0.10252405  0.79794382  0.50321227     0.08500
O713        O  0.05522475  0.79673828  0.61763037    -0.40300
O714        O  0.07344353  0.81402885  0.60964101    -0.39500
O715        O  0.12031712  0.75612018  0.53874876    -0.39500
O716        O  0.10176222  0.73911167  0.54484799    -0.37200
O717        O  0.09637842  0.81665581  0.42949219    -0.38100
O718        O  0.11940935  0.80590045  0.43825524    -0.34300
O719        O  0.05904434  0.75592392  0.50633842    -0.35700
O720        O  0.07735300  0.73923815  0.49185709    -0.40000
C721        C  0.20038003  0.90389179  0.54851636    -0.13600
C722        C  0.21499213  0.90110366  0.53314145     0.16700
C723        C  0.22824736  0.89846356  0.55428603     0.03000
C724        C  0.22671693  0.89842444  0.59035024    -0.12200
C725        C  0.21215945  0.90147027  0.60607552    -0.03200
C726        C  0.19887993  0.90433775  0.58467526     0.02300
C727        C  0.21641087  0.90244366  0.49509172     0.09100
N728        N  0.24341891  0.89623420  0.53946167     0.65500
H729        H  0.23712765  0.89642086  0.60609072     0.18400
N730        N  0.18396750  0.90838500  0.59899883     0.75900
H731        H  0.19018938  0.90629856  0.53230738     0.09900
C732        C  0.21100536  0.89065822  0.47311405     0.03600
C733        C  0.21140883  0.89292072  0.43715398    -0.05100
C734        C  0.21709492  0.90687011  0.42243374    -0.23500
C735        C  0.22275906  0.91857594  0.44468110     0.12800
C736        C  0.22239968  0.91623076  0.48065974    -0.12700
N737        N  0.20510188  0.87632100  0.48693681     0.64500
H738        H  0.20706357  0.88373196  0.42071638     0.12400
N739        N  0.22825905  0.93318374  0.43145079     0.61100
H740        H  0.22642565  0.92542266  0.49750557     0.08500
O741        O  0.17981877  0.92261957  0.60037557    -0.40300
O742        O  0.17386754  0.89790087  0.60331147    -0.39500
O743        O  0.25244222  0.90774878  0.53649576    -0.39500
O744        O  0.24882927  0.88252698  0.53569247    -0.37200
O745        O  0.21895363  0.94480308  0.42988148    -0.38100
O746        O  0.24281823  0.93538318  0.42933792    -0.34300
O747        O  0.19049535  0.87422724  0.48762986    -0.35700
O748        O  0.21431692  0.86474294  0.49117590    -0.40000
C749        C  0.15140352  0.86305269  0.74209599    -0.13600
C750        C  0.15655592  0.84783516  0.75111271     0.16700
C751        C  0.17271143  0.84505556  0.75687970     0.03000
C752        C  0.18338574  0.85718788  0.75197947    -0.12200
C753        C  0.17831449  0.87230115  0.74178292    -0.03200
C754        C  0.16205503  0.87527112  0.73768728     0.02300
C755        C  0.14526792  0.83472334  0.74958045     0.09100
N756        N  0.17846753  0.82995524  0.76773987     0.65500
H757        H  0.19576955  0.85467741  0.75581515     0.18400
N758        N  0.15618215  0.89036043  0.72711627     0.75900
H759        H  0.13909541  0.86532611  0.73673960     0.09900
C760        C  0.13123787  0.83471939  0.76882057     0.03600
C761        C  0.12019624  0.82292590  0.76374847    -0.05100
C762        C  0.12268351  0.81114382  0.73919342    -0.23500
C763        C  0.13671082  0.81127031  0.71969317     0.12800
C764        C  0.14785622  0.82285378  0.72538064    -0.12700
N765        N  0.12797597  0.84666358  0.79346822     0.64500
H766        H  0.10952744  0.82311728  0.77888524     0.12400
N767        N  0.13935652  0.80048428  0.69220235     0.61100
H768        H  0.15826052  0.82305436  0.70937548     0.08500
O769        O  0.15016669  0.89931993  0.74933395    -0.40300
O770        O  0.15425385  0.89342505  0.69528241    -0.39500
O771        O  0.18636726  0.82174268  0.74697442    -0.39500
O772        O  0.17865235  0.82645240  0.79961340    -0.37200
O773        O  0.13330281  0.80326963  0.66280690    -0.38100
O774        O  0.15006307  0.79018254  0.69516772    -0.34300
O775        O  0.11814859  0.85739308  0.78596932    -0.35700
O776        O  0.13217662  0.84461182  0.82461192    -0.40000
C777        C  0.21723433  0.01601256  0.26484387    -0.13600
C778        C  0.20275149  0.01012454  0.27558608     0.16700
C779        C  0.19076427  0.02086241  0.28484384     0.03000
C780        C  0.19361156  0.03703811  0.28424464    -0.12200
C781        C  0.20825727  0.04291665  0.27430586    -0.03200
C782        C  0.22004726  0.03215319  0.26384939     0.02300
C783        C  0.20117371  0.99284042  0.28068025     0.09100
N784        N  0.17562423  0.01554577  0.29490717     0.65500
H785        H  0.18434698  0.04502496  0.29218116     0.18400
N786        N  0.23528674  0.03727009  0.25406209     0.75900
H787        H  0.22674446  0.00798943  0.25865765     0.09900
C788        C  0.20481239  0.98212892  0.25417016     0.03600
C789        C  0.20545884  0.96597908  0.26144922    -0.05100
C790        C  0.20272406  0.96009674  0.29499871    -0.23500
C791        C  0.19851259  0.97078041  0.32124014     0.12800
C792        C  0.19782551  0.98692195  0.31390341    -0.12700
N793        N  0.20815456  0.98745838  0.21977841     0.64500
H794        H  0.20867193  0.95804508  0.24086948     0.12400
N795        N  0.19528010  0.96554233  0.35575190     0.61100
H796        H  0.19535082  0.99492237  0.33481153     0.08500
O797        O  0.23867641  0.03841041  0.22234101    -0.40300
O798        O  0.24612537  0.03733528  0.27642861    -0.39500
O799        O  0.17177261  0.01583640  0.32643590    -0.39500
O800        O  0.16513115  0.01407042  0.27207659    -0.37200
O801        O  0.20579012  0.96647300  0.37870925    -0.38100
O802        O  0.18125697  0.96346725  0.36477770    -0.34300
O803        O  0.22212718  0.98710793  0.20916910    -0.35700
O804        O  0.19710868  0.98879623  0.19803572    -0.40000
C805        C  0.13643680  0.15649108  0.27876190    -0.13600
C806        C  0.15089729  0.16219393  0.26739488     0.16700
C807        C  0.15206324  0.17830158  0.25915817     0.03000
C808        C  0.13897317  0.18831978  0.26294465    -0.12200
C809        C  0.12453276  0.18269533  0.27492198    -0.03200
C810        C  0.12336197  0.16649919  0.28269529     0.02300
C811        C  0.16450883  0.15104379  0.26531078     0.09100
N812        N  0.16628290  0.18465319  0.24600597     0.65500
H813        H  0.14019687  0.20064683  0.25663053     0.18400
N814        N  0.10905164  0.15995519  0.29482017     0.75900
H815        H  0.13535300  0.14415735  0.28522124     0.09900
C816        C  0.17732630  0.15186374  0.28839135     0.03600
C817        C  0.18898754  0.14010885  0.28848019    -0.05100
C818        C  0.18806935  0.12703660  0.26671558    -0.23500
C819        C  0.17547236  0.12647143  0.24281107     0.12800
C820        C  0.16390345  0.13843005  0.24228481    -0.12700
N821        N  0.17795916  0.16368339  0.31424841     0.64500
H822        H  0.19838200  0.14081710  0.30737312     0.12400
N823        N  0.17388235  0.11363739  0.21974863     0.61100
H824        H  0.15408782  0.13760184  0.22449877     0.08500
O825        O  0.10706610  0.15793372  0.32694961    -0.40300
O826        O  0.10017649  0.15316102  0.27372041    -0.39500
O827        O  0.16874092  0.18436084  0.21379754    -0.39500
O828        O  0.17386211  0.19407453  0.26435535    -0.37200
O829        O  0.16474464  0.10266212  0.22752538    -0.38100
O830        O  0.17863602  0.11502152  0.18895622    -0.34300
O831        O  0.17016165  0.16192711  0.34170551    -0.35700
O832        O  0.18908377  0.17325982  0.31385083    -0.40000
C833        C  0.21537641  0.01205965  0.74153383    -0.13600
C834        C  0.20832117  0.00383500  0.71455574     0.16700
C835        C  0.20164750  0.01220449  0.68634768     0.03000
C836        C  0.20287364  0.02851453  0.68462290    -0.12200
C837        C  0.21044673  0.03681225  0.71093948    -0.03200
C838        C  0.21640762  0.02844576  0.74009573     0.02300
C839        C  0.20866557  0.98651301  0.71561129     0.09100
N840        N  0.19333918  0.00435049  0.65958833     0.65500
H841        H  0.19793532  0.03471519  0.66233647     0.18400
N842        N  0.22418170  0.03625691  0.76763934     0.75900
H843        H  0.22045752  0.00568005  0.76342267     0.09900
C844        C  0.21930297  0.97798311  0.69512508     0.03600
C845        C  0.21960911  0.96163550  0.69697389    -0.05100
C846        C  0.20951778  0.95340131  0.71915337    -0.23500
C847        C  0.19895761  0.96199869  0.74001504     0.12800
C848        C  0.19864501  0.97844620  0.73809035    -0.12700
N849        N  0.23025203  0.98574991  0.67312681     0.64500
H850        H  0.22794013  0.95537251  0.68094299     0.12400
N851        N  0.18841738  0.95429615  0.76302795     0.61100
H852        H  0.19050612  0.98496081  0.75411829     0.08500
O853        O  0.23895849  0.03675031  0.76798644    -0.40300
O854        O  0.21667622  0.03951754  0.79477745    -0.39500
O855        O  0.17870806  0.00279061  0.66228615    -0.39500
O856        O  0.19966917  0.00262806  0.63037106    -0.37200
O857        O  0.19173687  0.95324219  0.79488538    -0.38100
O858        O  0.17465014  0.95151784  0.75298576    -0.34300
O859        O  0.24351279  0.98921610  0.68517366    -0.35700
O860        O  0.22832391  0.98543930  0.64070234    -0.40000
C861        C  0.22609367  0.10271215  0.45496667    -0.13600
C862        C  0.21702875  0.09168518  0.47292432     0.16700
C863        C  0.20771968  0.08132955  0.45364631     0.03000
C864        C  0.20824934  0.08166112  0.41745297    -0.12200
C865        C  0.21783564  0.09220087  0.39954072    -0.03200
C866        C  0.22662099  0.10303958  0.41867304     0.02300
C867        C  0.21724587  0.09131956  0.51154825     0.09100
N868        N  0.19784556  0.07016556  0.47026705     0.65500
H869        H  0.20123626  0.07337708  0.40332754     0.18400
N870        N  0.23584777  0.11468396  0.40181310     0.75900
H871        H  0.23267554  0.11129249  0.46917696     0.09900
C872        C  0.23146763  0.09068769  0.53051276     0.03600
C873        C  0.23121613  0.09008932  0.56677586    -0.05100
C874        C  0.21701153  0.08987645  0.58494077    -0.23500
C875        C  0.20279299  0.09088943  0.56607032     0.12800
C876        C  0.20304959  0.09181413  0.52980790    -0.12700
N877        N  0.24629054  0.09011145  0.51341046     0.64500
H878        H  0.24225880  0.08930428  0.58075008     0.12400
N879        N  0.18798882  0.09136373  0.58322658     0.61100
H880        H  0.19204269  0.09303208  0.51587977     0.08500
O881        O  0.25057820  0.11311575  0.40132614    -0.40300
O882        O  0.22965589  0.12776622  0.39381303    -0.39500
O883        O  0.18317661  0.07234167  0.46948511    -0.39500
O884        O  0.20329157  0.05670702  0.47768800    -0.37200
O885        O  0.18162917  0.10444781  0.58961916    -0.38100
O886        O  0.17991908  0.07911395  0.58503241    -0.34300
O887        O  0.25486753  0.10203045  0.51346594    -0.35700
O888        O  0.25214686  0.07701525  0.50525154    -0.40000
C889        C  0.10522551  0.21148199  0.53157292    -0.13600
C890        C  0.09228685  0.21837199  0.51432695     0.16700
C891        C  0.07963216  0.22423673  0.53376934     0.03000
C892        C  0.07994883  0.22294571  0.56983226    -0.12200
C893        C  0.09269598  0.21578645  0.58723565    -0.03200
C894        C  0.10549879  0.21004650  0.56780854     0.02300
C895        C  0.09153635  0.21806479  0.47607242     0.09100
N896        N  0.06637755  0.23159399  0.51723409     0.65500
H897        H  0.07005549  0.22751884  0.58427696     0.18400
N898        N  0.11830364  0.20180756  0.58413746     0.75900
H899        H  0.11485800  0.20662099  0.51674318     0.09900
C900        C  0.10260080  0.22586392  0.45546725     0.03600
C901        C  0.10201605  0.22454766  0.41938204    -0.05100
C902        C  0.09038048  0.21569646  0.40318110    -0.23500
C903        C  0.07919209  0.20798924  0.42402081     0.12800
C904        C  0.07996682  0.20914206  0.46011248    -0.12700
N905        N  0.11414144  0.23560671  0.47077141     0.64500
H906        H  0.11058287  0.23073731  0.40396931     0.12400
N907        N  0.06692776  0.19900223  0.40915602     0.61100
H908        H  0.07153876  0.20291018  0.47582669     0.08500
O909        O  0.13124607  0.20854363  0.58801479    -0.40300
O910        O  0.11759290  0.18716079  0.58859592    -0.39500
O911        O  0.05381155  0.22410748  0.51423391    -0.39500
O912        O  0.06612693  0.24627622  0.51297255    -0.37200
O913        O  0.06860556  0.18433384  0.40700669    -0.38100
O914        O  0.05346286  0.20512362  0.40527595    -0.34300
O915        O  0.12844689  0.23170924  0.46923694    -0.35700
O916        O  0.11035702  0.24928359  0.47994120    -0.40000
C917        C  0.15090631  0.16872049  0.72601087    -0.13600
C918        C  0.14830702  0.15403493  0.71115152     0.16700
C919        C  0.13329430  0.15094024  0.69750649     0.03000
C920        C  0.12135319  0.16236019  0.69893933    -0.12200
C921        C  0.12403269  0.17721221  0.71286732    -0.03200
C922        C  0.13906762  0.18034593  0.72651777     0.02300
C923        C  0.16114663  0.14192627  0.71115096     0.09100
N924        N  0.13018130  0.13657295  0.68033928     0.65500
H925        H  0.11004869  0.15975369  0.68763638     0.18400
N926        N  0.14256136  0.19518991  0.74113714     0.75900
H927        H  0.16221082  0.17120282  0.73740898     0.09900
C928        C  0.17613469  0.14510788  0.69761187     0.03600
C929        C  0.18788467  0.13345134  0.69825180    -0.05100
C930        C  0.18507978  0.11835800  0.71164195    -0.23500
C931        C  0.17009608  0.11519134  0.72538483     0.12800
C932        C  0.15844252  0.12699307  0.72547628    -0.12700
N933        N  0.17944951  0.15987288  0.68158814     0.64500
H934        H  0.19917438  0.13615715  0.68708789     0.12400
N935        N  0.16633823  0.10001691  0.73870500     0.61100
H936        H  0.14713253  0.12440781  0.73665337     0.08500
O937        O  0.14911186  0.20545048  0.72260907    -0.40300
O938        O  0.14258062  0.19660802  0.77364950    -0.39500
O939        O  0.12142093  0.12664567  0.69465324    -0.39500
O940        O  0.13303678  0.13549504  0.64839036    -0.37200
O941        O  0.16523729  0.09790699  0.77102487    -0.38100
O942        O  0.16091745  0.08991035  0.71848586    -0.34300
O943        O  0.18800756  0.16943475  0.69727937    -0.35700
O944        O  0.17715576  0.16165719  0.64943611    -0.40000
C945        C  0.91965572  0.67117782  0.24547314    -0.13600
C946        C  0.91357395  0.68271073  0.22273126     0.16700
C947        C  0.91034321  0.67849860  0.18829641     0.03000
C948        C  0.91352796  0.66320712  0.17704521    -0.12200
C949        C  0.92028163  0.65159613  0.19923755    -0.03200
C950        C  0.92308900  0.65589084  0.23422806     0.02300
C951        C  0.91208887  0.69932858  0.23439925     0.09100
N952        N  0.90413197  0.68976329  0.16395659     0.65500
H953        H  0.91120986  0.66105825  0.15013475     0.18400
N954        N  0.93013785  0.64512630  0.25856253     0.75900
H955        H  0.92252661  0.67424912  0.27188352     0.09900
C956        C  0.90294080  0.70358472  0.26327503     0.03600
C957        C  0.90256030  0.71917850  0.27447022    -0.05100
C958        C  0.91132965  0.73087003  0.25779228    -0.23500
C959        C  0.92061285  0.72656783  0.22902331     0.12800
C960        C  0.92081179  0.71099084  0.21758018    -0.12700
N961        N  0.89386956  0.69223844  0.28148634     0.64500
H962        H  0.89541247  0.72209471  0.29668716     0.12400
N963        N  0.93058633  0.73759327  0.21223424     0.61100
H964        H  0.92835403  0.70786110  0.19616279     0.08500
O965        O  0.94476118  0.64547044  0.26352589    -0.40300
O966        O  0.92161978  0.63883792  0.28129939    -0.39500
O967        O  0.91306721  0.69567862  0.14150231    -0.39500
O968        O  0.88947830  0.69106575  0.16001165    -0.37200
O969        O  0.94392248  0.74022151  0.22501398    -0.38100
O970        O  0.92756021  0.74201499  0.18156077    -0.34300
O971        O  0.89882529  0.68680992  0.31014750    -0.35700
O972        O  0.87964576  0.69059841  0.27340701    -0.40000
C973        C  0.98693498  0.78080517  0.32063081    -0.13600
C974        C  0.99325335  0.78790022  0.29094169     0.16700
C975        C  0.98311009  0.79196274  0.26314888     0.03000
C976        C  0.96694329  0.78931921  0.26598237    -0.12200
C977        C  0.96055432  0.78253569  0.29609334    -0.03200
C978        C  0.97083492  0.77819512  0.32359349     0.02300
C979        C  0.01048284  0.79051734  0.28982395     0.09100
N980        N  0.98894525  0.79909102  0.23219136     0.65500
H981        H  0.95935240  0.79266836  0.24445357     0.18400
N982        N  0.96521932  0.77114883  0.35485975     0.75900
H983        H  0.99461128  0.77714397  0.34177421     0.09900
C984        C  0.01802905  0.79892515  0.31619676     0.03600
C985        C  0.03439733  0.79899602  0.31821814    -0.05100
C986        C  0.04369591  0.79072287  0.29450722    -0.23500
C987        C  0.03618442  0.78305047  0.26682345     0.12800
C988        C  0.01971586  0.78298351  0.26480177    -0.12700
N989        N  0.00921597  0.80709968  0.34187967     0.64500
H990        H  0.03981833  0.80510642  0.33949237     0.12400
N991        N  0.04499908  0.77469395  0.24144408     0.61100
H992        H  0.01414383  0.77631377  0.24461498     0.08500
O993        O  0.96325336  0.77950802  0.38127171    -0.40300
O994        O  0.96571552  0.75642719  0.35830279    -0.39500
O995        O  0.99146202  0.79072062  0.20601763    -0.39500
O996        O  0.98791648  0.81377675  0.22842298    -0.37200
O997        O  0.04692138  0.76005938  0.24470789    -0.38100
O998        O  0.04804016  0.78128043  0.21284021    -0.34300
O999        O  0.00834935  0.80137867  0.37212748    -0.35700
O1000       O  0.00565724  0.82134739  0.33679757    -0.40000
C1001       C  0.85242067  0.81675275  0.24845730    -0.13600
C1002       C  0.85455878  0.83191391  0.26128803     0.16700
C1003       C  0.86899003  0.83539248  0.27734181     0.03000
C1004       C  0.88085351  0.82384595  0.28000836    -0.12200
C1005       C  0.87849265  0.80847224  0.26860901    -0.03200
C1006       C  0.86409675  0.80503549  0.25230310     0.02300
C1007       C  0.84103320  0.84325293  0.26116954     0.09100
N1008       N  0.87123461  0.84999079  0.29433510     0.65500
H1009       H  0.89161685  0.82667713  0.29341920     0.18400
N1010       N  0.86098094  0.78968260  0.23999733     0.75900
H1011       H  0.84137312  0.81384235  0.23632907     0.09900
C1012       C  0.84170352  0.85831669  0.24562765     0.03600
C1013       C  0.82915165  0.86898958  0.24948773    -0.05100
C1014       C  0.81563987  0.86493496  0.26803982    -0.23500
C1015       C  0.81466438  0.84956867  0.28198603     0.12800
C1016       C  0.82729498  0.83899583  0.27855432    -0.12700
N1017       N  0.85477296  0.86284770  0.22495480     0.64500
H1018       H  0.83003521  0.88058121  0.23793170     0.12400
N1019       N  0.80135457  0.84471912  0.30147159     0.61100
H1020       H  0.82655436  0.82748889  0.29061095     0.08500
O1021       O  0.86303364  0.78673148  0.20836819    -0.40300
O1022       O  0.85292221  0.78050821  0.25832634    -0.39500
O1023       O  0.86416338  0.85259247  0.32239116    -0.39500
O1024       O  0.88275310  0.85835109  0.28614887    -0.37200
O1025       O  0.79116269  0.83634824  0.28725088    -0.38100
O1026       O  0.80165856  0.84568344  0.33406382    -0.34300
O1027       O  0.85537099  0.85852157  0.19383379    -0.35700
O1028       O  0.86293126  0.87427972  0.23425087    -0.40000
C1029       C  0.78846555  0.90000136  0.52949344    -0.13600
C1030       C  0.77493954  0.89510812  0.51237899     0.16700
C1031       C  0.76158527  0.89122347  0.53180394     0.03000
C1032       C  0.76196456  0.89237659  0.56797520    -0.12200
C1033       C  0.77549342  0.89738870  0.58531005    -0.03200
C1034       C  0.78886791  0.90123461  0.56557324     0.02300
C1035       C  0.77515067  0.89448664  0.47417721     0.09100
N1036       N  0.74771163  0.88573307  0.51532661     0.65500
H1037       H  0.75160941  0.88925869  0.58252911     0.18400
N1038       N  0.80290505  0.90661473  0.58152109     0.75900
H1039       H  0.79875206  0.90308242  0.51462953     0.09900
C1040       C  0.76754901  0.90612404  0.45385881     0.03600
C1041       C  0.76931096  0.90617362  0.41791007    -0.05100
C1042       C  0.77887112  0.89499039  0.40149914    -0.23500
C1043       C  0.78644608  0.88324345  0.42195988     0.12800
C1044       C  0.78446248  0.88307400  0.45801488    -0.12700
N1045       N  0.75896431  0.91866402  0.46946269     0.64500
H1046       H  0.76350299  0.91539776  0.40289008     0.12400
N1047       N  0.79656432  0.87173524  0.40691271     0.61100
H1048       H  0.79056012  0.87423539  0.47361168     0.08500
O1049       O  0.80520240  0.92114783  0.58343931    -0.40300
O1050       O  0.81421958  0.89714519  0.58651026    -0.39500
O1051       O  0.74604694  0.87119854  0.51141451    -0.39500
O1052       O  0.73586434  0.89471302  0.51280282    -0.37200
O1053       O  0.79135162  0.85827363  0.40099962    -0.38100
O1054       O  0.81118944  0.87375510  0.40735960    -0.34300
O1055       O  0.76624984  0.93056538  0.47939923    -0.35700
O1056       O  0.74430870  0.91961718  0.46514982    -0.40000
C1057       C  0.91947056  0.71608572  0.79400589    -0.13600
C1058       C  0.91778956  0.70330986  0.77168814     0.16700
C1059       C  0.91309694  0.70625540  0.73710789     0.03000
C1060       C  0.91056539  0.72163921  0.72530108    -0.12200
C1061       C  0.91265079  0.73447710  0.74716345    -0.03200
C1062       C  0.91701090  0.73157297  0.78210492     0.02300
C1063       C  0.92081180  0.68699868  0.78468728     0.09100
N1064       N  0.91150419  0.69377671  0.71309032     0.65500
H1065       H  0.90723974  0.72351949  0.69840131     0.18400
N1066       N  0.91946651  0.74411802  0.80559542     0.75900
H1067       H  0.92270027  0.71404391  0.82088518     0.09900
C1068       C  0.93494445  0.68271598  0.80148233     0.03600
C1069       C  0.93733838  0.66733356  0.81346293    -0.05100
C1070       C  0.92636449  0.65543256  0.80732636    -0.23500
C1071       C  0.91176201  0.66004513  0.79221288     0.12800
C1072       C  0.90923994  0.67561684  0.78097401    -0.12700
N1073       N  0.94730080  0.69368418  0.80548265     0.64500
H1074       H  0.94806342  0.66479236  0.82765737     0.12400
N1075       N  0.89894960  0.64952696  0.78990806     0.61100
H1076       H  0.89794746  0.67892622  0.76994421     0.08500
O1077       O  0.93326884  0.74747511  0.81435066    -0.40300
O1078       O  0.90813549  0.74914342  0.82341186    -0.39500
O1079       O  0.89799321  0.68974817  0.70358585    -0.39500
O1080       O  0.92329536  0.68926961  0.69607113    -0.37200
O1081       O  0.89393307  0.64574193  0.76039690    -0.38100
O1082       O  0.89031713  0.64751512  0.81601259    -0.34300
O1083       O  0.95041414  0.69883127  0.83520623    -0.35700
O1084       O  0.95714440  0.69532753  0.78144579    -0.40000
C1085       C  0.98107689  0.78900748  0.75052308    -0.13600
C1086       C  0.98966837  0.79335494  0.72106196     0.16700
C1087       C  0.98146500  0.79714627  0.69015755     0.03000
C1088       C  0.96515783  0.79555438  0.68857118    -0.12200
C1089       C  0.95661468  0.79031504  0.71741624    -0.03200
C1090       C  0.96469357  0.78750981  0.74900395     0.02300
C1091       C  0.00706110  0.79135364  0.72137224     0.09100
N1092       N  0.98957556  0.80235335  0.65989496     0.65500
H1093       H  0.95919144  0.79806541  0.66421603     0.18400
N1094       N  0.95673321  0.78166193  0.77881945     0.75900
H1095       H  0.98720645  0.78579324  0.77429271     0.09900
C1096       C  0.01684804  0.79927740  0.74471821     0.03600
C1097       C  0.03308184  0.79611662  0.74525924    -0.05100
C1098       C  0.03985509  0.78493939  0.72317586    -0.23500
C1099       C  0.02991333  0.77681035  0.70029091     0.12800
C1100       C  0.01378980  0.78012128  0.69957408    -0.12700
N1101       N  0.01053073  0.81071683  0.76768632     0.64500
H1102       H  0.04041330  0.80248049  0.76306189     0.12400
N1103       N  0.03587620  0.76498782  0.67778040     0.61100
H1104       H  0.00637856  0.77353392  0.68233947     0.08500
O1105       O  0.95276777  0.79099009  0.80243131    -0.40300
O1106       O  0.95692032  0.76711346  0.78501620    -0.39500
O1107       O  0.99164378  0.79304052  0.63513750    -0.39500
O1108       O  0.99128804  0.81685280  0.65472640    -0.37200
O1109       O  0.03529184  0.75078913  0.68714724    -0.38100
O1110       O  0.03837037  0.76834307  0.64636196    -0.34300
O1111       O  0.01003341  0.80772489  0.79977532    -0.35700
O1112       O  0.00853214  0.82465062  0.75706620    -0.40000
C1113       C  0.89484466  0.76613048  0.53944146    -0.13600
C1114       C  0.90521489  0.77541227  0.52015437     0.16700
C1115       C  0.91571093  0.78509019  0.53794482     0.03000
C1116       C  0.91572526  0.78534371  0.57413226    -0.12200
C1117       C  0.90542594  0.77609386  0.59361006    -0.03200
C1118       C  0.89482335  0.76641385  0.57587078     0.02300
C1119       C  0.90459465  0.77544037  0.48158914     0.09100
N1120       N  0.92670197  0.79453386  0.51963479     0.65500
H1121       H  0.92406146  0.79277268  0.58704950     0.18400
N1122       N  0.88353052  0.75734482  0.59419587     0.75900
H1123       H  0.88644354  0.75892292  0.52613629     0.09900
C1124       C  0.90652448  0.76153852  0.46264316     0.03600
C1125       C  0.90641495  0.76211099  0.42635983    -0.05100
C1126       C  0.90476587  0.77640721  0.40815966    -0.23500
C1127       C  0.90242762  0.79029962  0.42712219     0.12800
C1128       C  0.90218975  0.78965792  0.46345051    -0.12700
N1129       N  0.90964838  0.74687998  0.47978798     0.64500
H1130       H  0.90837733  0.75132560  0.41239667     0.12400
N1131       N  0.90021896  0.80513784  0.41006635     0.61100
H1132       H  0.90022765  0.80038323  0.47761142     0.08500
O1133       O  0.88533683  0.74266849  0.59656233    -0.40300
O1134       O  0.87038836  0.76344994  0.60132148    -0.39500
O1135       O  0.92481658  0.80922762  0.51873832    -0.39500
O1136       O  0.93969699  0.78861980  0.51075914    -0.37200
O1137       O  0.88652303  0.80977981  0.40224790    -0.38100
O1138       O  0.91124390  0.81483033  0.40991916    -0.34300
O1139       O  0.89929095  0.73648196  0.47995894    -0.35700
O1140       O  0.92358817  0.74316446  0.48778449    -0.40000
C1141       C  0.84476039  0.81688103  0.71944336    -0.13600
C1142       C  0.84777902  0.83286562  0.71441254     0.16700
C1143       C  0.86347281  0.83757537  0.71041908     0.03000
C1144       C  0.87567347  0.82635712  0.71144384    -0.12200
C1145       C  0.87263614  0.81029317  0.71571580    -0.03200
C1146       C  0.85689540  0.80561844  0.71956848     0.02300
C1147       C  0.83440810  0.84434861  0.71404441     0.09100
N1148       N  0.86719549  0.85359869  0.70369366     0.65500
H1149       H  0.88758838  0.83025399  0.70776035     0.18400
N1150       N  0.85291167  0.78949462  0.72326506     0.75900
H1151       H  0.83284260  0.81305964  0.72336769     0.09900
C1152       C  0.82129735  0.84237457  0.69216351     0.03600
C1153       C  0.80870021  0.85300790  0.69317556    -0.05100
C1154       C  0.80881425  0.86600716  0.71512131    -0.23500
C1155       C  0.82180867  0.86790537  0.73747751     0.12800
C1156       C  0.83436419  0.85704211  0.73692965    -0.12700
N1157       N  0.82087892  0.83009079  0.66736795     0.64500
H1158       H  0.79898790  0.85133142  0.67546582     0.12400
N1159       N  0.82250858  0.88072895  0.76083557     0.61100
H1160       H  0.84410982  0.85851043  0.75462703     0.08500
O1161       O  0.84760582  0.78232313  0.69743522    -0.40300
O1162       O  0.85125094  0.78367829  0.75322720    -0.39500
O1163       O  0.87347233  0.86152048  0.72724814    -0.39500
O1164       O  0.86752249  0.85859613  0.67278285    -0.37200
O1165       O  0.81910041  0.87855296  0.79230485    -0.38100
O1166       O  0.82962835  0.89297954  0.75192216    -0.34300
O1167       O  0.81204060  0.81858757  0.67264314    -0.35700
O1168       O  0.82587813  0.83269728  0.63714198    -0.40000
C1169       C  0.77596348  0.00425863  0.70500220    -0.13600
C1170       C  0.78775311  0.99643368  0.72408326     0.16700
C1171       C  0.79981349  0.00520261  0.73914575     0.03000
C1172       C  0.79989403  0.02157963  0.73494088    -0.12200
C1173       C  0.78825777  0.02944467  0.71517435    -0.03200
C1174       C  0.77614566  0.02054158  0.70019741     0.02300
C1175       C  0.78783529  0.97904323  0.72505914     0.09100
N1176       N  0.81207427  0.99762644  0.75866966     0.65500
H1177       H  0.80930230  0.02811668  0.74658671     0.18400
N1178       N  0.76398433  0.02776489  0.67968989     0.75900
H1179       H  0.76675805  0.99760284  0.69287464     0.09900
C1180       C  0.77597560  0.97065513  0.74214192     0.03600
C1181       C  0.77494837  0.95440756  0.73807782    -0.05100
C1182       C  0.78537643  0.94627756  0.71647623    -0.23500
C1183       C  0.79754126  0.95464543  0.70011401     0.12800
C1184       C  0.79871639  0.97086299  0.70473695    -0.12700
N1185       N  0.76462011  0.97855400  0.76296185     0.64500
H1186       H  0.76549287  0.94824654  0.75071528     0.12400
N1187       N  0.80866512  0.94693679  0.67833204     0.61100
H1188       H  0.80777712  0.97721513  0.69115920     0.08500
O1189       O  0.75097689  0.03104765  0.69346869    -0.40300
O1190       O  0.76509195  0.02785303  0.64708057    -0.39500
O1191       O  0.82524882  0.99526473  0.74478427    -0.39500
O1192       O  0.81072939  0.99611897  0.79108816    -0.37200
O1193       O  0.80700819  0.94780516  0.64584056    -0.38100
O1194       O  0.82160819  0.94227236  0.69097836    -0.34300
O1195       O  0.75091131  0.98081532  0.75132030    -0.35700
O1196       O  0.76726199  0.98019832  0.79489758    -0.40000
C1197       C  0.98255578  0.19830132  0.74459290    -0.13600
C1198       C  0.99215196  0.20362330  0.71749523     0.16700
C1199       C  0.98489513  0.21045176  0.68778382     0.03000
C1200       C  0.96854298  0.21111050  0.68496311    -0.12200
C1201       C  0.95889795  0.20548758  0.71159534    -0.03200
C1202       C  0.96609665  0.19944107  0.74217622     0.02300
C1203       C  0.00955868  0.20117200  0.71898879     0.09100
N1204       N  0.99396686  0.21709889  0.66035962     0.65500
H1205       H  0.96338365  0.21615877  0.66156800     0.18400
N1206       N  0.95694232  0.19458254  0.77117580     0.75900
H1207       H  0.98780783  0.19296696  0.76753857     0.09900
C1208       C  0.01897822  0.20656589  0.74649582     0.03600
C1209       C  0.03542009  0.20580954  0.74394009    -0.05100
C1210       C  0.04280439  0.19979278  0.71431009    -0.23500
C1211       C  0.03331800  0.19336131  0.68803452     0.12800
C1212       C  0.01697301  0.19382552  0.69103144    -0.12700
N1213       N  0.01213955  0.21359215  0.77635773     0.64500
H1214       H  0.04241030  0.21065559  0.76460727     0.12400
N1215       N  0.03991979  0.18736484  0.65681413     0.61100
H1216       H  0.00997155  0.18899338  0.67037663     0.08500
O1217       O  0.95343141  0.20438945  0.79418777    -0.40300
O1218       O  0.95510945  0.18016575  0.77721295    -0.39500
O1219       O  0.99482787  0.21015094  0.63173893    -0.39500
O1220       O  0.99775553  0.23130695  0.66185528    -0.37200
O1221       O  0.03966276  0.17282660  0.65136926    -0.38100
O1222       O  0.04258005  0.19666650  0.63189959    -0.34300
O1223       O  0.01079144  0.20550662  0.80377277    -0.35700
O1224       O  0.01121349  0.22833036  0.77799097    -0.40000
C1225       C  0.87126519  0.14754332  0.73956173    -0.13600
C1226       C  0.85613037  0.14936751  0.72545111     0.16700
C1227       C  0.85161515  0.16410745  0.71135711     0.03000
C1228       C  0.86243455  0.17632106  0.70971061    -0.12200
C1229       C  0.87781980  0.17432512  0.72241852    -0.03200
C1230       C  0.88199887  0.15988408  0.73862547     0.02300
C1231       C  0.84519775  0.13585239  0.72572804     0.09100
N1232       N  0.83623921  0.16670533  0.69740192     0.65500
H1233       H  0.85886672  0.18729105  0.69737420     0.18400
N1234       N  0.89689029  0.15769863  0.75523045     0.75900
H1235       H  0.87472358  0.13649726  0.75170690     0.09900
C1236       C  0.84883951  0.12186820  0.70815683     0.03600
C1237       C  0.83811946  0.10954333  0.70785849    -0.05100
C1238       C  0.82356850  0.11082078  0.72461865    -0.23500
C1239       C  0.82019311  0.12459886  0.74335228     0.12800
C1240       C  0.83095591  0.13691537  0.74370998    -0.12700
N1241       N  0.86299310  0.12035474  0.68874880     0.64500
H1242       H  0.84093529  0.09918409  0.69303530     0.12400
N1243       N  0.80606582  0.12615867  0.76282273     0.61100
H1244       H  0.82816803  0.14738736  0.75816108     0.08500
O1245       O  0.90727869  0.14922790  0.74130224    -0.40300
O1246       O  0.89854814  0.16172504  0.78637582    -0.39500
O1247       O  0.82628342  0.17440670  0.71458633    -0.39500
O1248       O  0.83370092  0.16420517  0.66572623    -0.37200
O1249       O  0.80602245  0.12197019  0.79430983    -0.38100
O1250       O  0.79496613  0.13463840  0.75108437    -0.34300
O1251       O  0.87430328  0.11233109  0.70104424    -0.35700
O1252       O  0.86305735  0.12435426  0.65714963    -0.40000
C1253       C  0.79339163  0.97227670  0.25780369    -0.13600
C1254       C  0.79897842  0.97910498  0.28828003     0.16700
C1255       C  0.80381844  0.96923107  0.31605827     0.03000
C1256       C  0.80275391  0.95295132  0.31314773    -0.12200
C1257       C  0.79651196  0.94608455  0.28328481    -0.03200
C1258       C  0.79203936  0.95596671  0.25510059     0.02300
C1259       C  0.79801253  0.99643831  0.29188316     0.09100
N1260       N  0.80933745  0.97553390  0.34793352     0.65500
H1261       H  0.80616971  0.94569162  0.33525156     0.18400
N1262       N  0.78551927  0.94978726  0.22407004     0.75900
H1263       H  0.78927418  0.97968636  0.23653895     0.09900
C1264       C  0.80535073  0.00670763  0.26826696     0.03600
C1265       C  0.80318855  0.02294836  0.27118844    -0.05100
C1266       C  0.79368020  0.02933522  0.29721320    -0.23500
C1267       C  0.78628031  0.01901900  0.32082465     0.12800
C1268       C  0.78848779  0.00279220  0.31787832    -0.12700
N1269       N  0.81508041  0.00086172  0.24117051     0.64500
H1270       H  0.80898014  0.03059531  0.25280068     0.12400
N1271       N  0.77598153  0.02470745  0.34710337     0.61100
H1272       H  0.78230684  0.99507724  0.33545053     0.08500
O1273       O  0.79411227  0.94835421  0.19773431    -0.40300
O1274       O  0.77081383  0.94956801  0.22043708    -0.39500
O1275       O  0.80041279  0.97558659  0.37393684    -0.39500
O1276       O  0.82386784  0.97725989  0.35236137    -0.37200
O1277       O  0.76135697  0.02453375  0.34206664    -0.38100
O1278       O  0.78120242  0.02674899  0.37733891    -0.34300
O1279       O  0.80975847  0.00061629  0.21061333    -0.35700
O1280       O  0.82969180  0.99976057  0.24606141    -0.40000
C1281       C  0.80342632  0.07254482  0.53587576    -0.13600
C1282       C  0.79524733  0.08490554  0.51925686     0.16700
C1283       C  0.78681208  0.09578791  0.53932808     0.03000
C1284       C  0.78645893  0.09403021  0.57530919    -0.12200
C1285       C  0.79443102  0.08156908  0.59204907    -0.03200
C1286       C  0.80313404  0.07078714  0.57198981     0.02300
C1287       C  0.79403219  0.08509691  0.48102154     0.09100
N1288       N  0.77849790  0.10868858  0.52353563     0.65500
H1289       H  0.77983506  0.10250864  0.59021330     0.18400
N1290       N  0.81097270  0.05751297  0.58747801     0.75900
H1291       H  0.80949162  0.06378988  0.52064859     0.09900
C1292       C  0.80739440  0.08554742  0.45974114     0.03600
C1293       C  0.80573384  0.08432560  0.42379678    -0.05100
C1294       C  0.79089248  0.08266743  0.40847189    -0.23500
C1295       C  0.77748453  0.08252266  0.42987603     0.12800
C1296       C  0.77919461  0.08365973  0.46576702    -0.12700
N1297       N  0.82268508  0.08750622  0.47417573     0.64500
H1298       H  0.81614890  0.08465971  0.40784045     0.12400
N1299       N  0.76208705  0.08070593  0.41587596     0.61100
H1300       H  0.76886732  0.08295257  0.48193532     0.08500
O1301       O  0.82572849  0.05737767  0.59001062    -0.40300
O1302       O  0.80367622  0.04485185  0.59116278    -0.39500
O1303       O  0.76370152  0.10879483  0.52326854    -0.39500
O1304       O  0.78565174  0.12123238  0.51727581    -0.37200
O1305       O  0.75660854  0.06713998  0.41283633    -0.38100
O1306       O  0.75298996  0.09246820  0.41335956    -0.34300
O1307       O  0.83152418  0.07567061  0.47884180    -0.35700
O1308       O  0.82849585  0.10100736  0.47468746    -0.40000
C1309       C  0.98554351  0.19180538  0.29147544    -0.13600
C1310       C  0.99181357  0.20147967  0.26558526     0.16700
C1311       C  0.98160463  0.20925515  0.24203516     0.03000
C1312       C  0.96531088  0.20795368  0.24587788    -0.12200
C1313       C  0.95899152  0.19905036  0.27316367    -0.03200
C1314       C  0.96928062  0.19043258  0.29526070     0.02300
C1315       C  0.00887810  0.20448682  0.26594018     0.09100
N1316       N  0.98762027  0.21901173  0.21500825     0.65500
H1317       H  0.95759345  0.21458960  0.22857188     0.18400
N1318       N  0.96339528  0.17994659  0.32109390     0.75900
H1319       H  0.99332781  0.18556490  0.30933768     0.09900
C1320       C  0.01486044  0.21641784  0.28673322     0.03600
C1321       C  0.03102334  0.21845596  0.28935568    -0.05100
C1322       C  0.04167076  0.20862768  0.27193390    -0.23500
C1323       C  0.03565900  0.19673144  0.25061337     0.12800
C1324       C  0.01933118  0.19478304  0.24776901    -0.12700
N1325       N  0.00464196  0.22617462  0.30659685     0.64500
H1326       H  0.03523192  0.22763679  0.30599111     0.12400
N1327       N  0.04587509  0.18621287  0.23271685     0.61100
H1328       H  0.01481047  0.18544391  0.23199838     0.08500
O1329       O  0.96429433  0.18351253  0.35266535    -0.40300
O1330       O  0.96052874  0.16599299  0.31303347    -0.39500
O1331       O  0.98886461  0.21370328  0.18476285    -0.39500
O1332       O  0.98898688  0.23351812  0.21985136    -0.37200
O1333       O  0.04880894  0.17280998  0.24556692    -0.38100
O1334       O  0.04928945  0.18902160  0.20148721    -0.34300
O1335       O  0.00245946  0.22294075  0.33819745    -0.35700
O1336       O  0.00063772  0.23952165  0.29489853    -0.40000
C1337       C  0.89517291  0.21048702  0.45699033    -0.13600
C1338       C  0.90530889  0.20009000  0.47507200     0.16700
C1339       C  0.91464829  0.18953862  0.45600333     0.03000
C1340       C  0.91445868  0.19022099  0.41970993    -0.12200
C1341       C  0.90504139  0.20125542  0.40156719    -0.03200
C1342       C  0.89492134  0.21113254  0.42062267     0.02300
C1343       C  0.90633415  0.20086334  0.51361197     0.09100
N1344       N  0.92502185  0.17859473  0.47302201     0.65500
H1345       H  0.92219417  0.18237465  0.40572043     0.18400
N1346       N  0.88427377  0.22181814  0.40359618     0.75900
H1347       H  0.88749533  0.21828479  0.47125215     0.09900
C1348       C  0.90992362  0.21504110  0.53001344     0.03600
C1349       C  0.91021028  0.21582152  0.56622449    -0.05100
C1350       C  0.90735174  0.20257001  0.58706852    -0.23500
C1351       C  0.90392308  0.18826602  0.57068242     0.12800
C1352       C  0.90335224  0.18757008  0.53427240    -0.12700
N1353       N  0.91400717  0.22861637  0.51015702     0.64500
H1354       H  0.91311536  0.22685192  0.57809448     0.12400
N1355       N  0.90047277  0.17448525  0.59045826     0.61100
H1356       H  0.90032207  0.17664902  0.52211193     0.08500
O1357       O  0.88742712  0.23620379  0.40199036    -0.40300
O1358       O  0.87060977  0.21742677  0.39623883    -0.39500
O1359       O  0.92166068  0.16424676  0.47366285    -0.39500
O1360       O  0.93880701  0.18264198  0.48024980    -0.37200
O1361       O  0.88645410  0.17177312  0.59860948    -0.38100
O1362       O  0.91061577  0.16360697  0.59295040    -0.34300
O1363       O  0.90474211  0.24027589  0.50875886    -0.35700
O1364       O  0.92779409  0.22991396  0.49887556    -0.40000
C1365       C  0.85202366  0.16241921  0.26067112    -0.13600
C1366       C  0.85653547  0.14677480  0.26769585     0.16700
C1367       C  0.87263575  0.14329870  0.27297630     0.03000
C1368       C  0.88358072  0.15540651  0.27300541    -0.12200
C1369       C  0.87887213  0.17115187  0.26857942    -0.03200
C1370       C  0.86290388  0.17456997  0.26159902     0.02300
C1371       C  0.84423334  0.13446981  0.27026594     0.09100
N1372       N  0.87801141  0.12769178  0.28058240     0.65500
H1373       H  0.89575714  0.15248849  0.27850766     0.18400
N1374       N  0.85745828  0.19030287  0.25574233     0.75900
H1375       H  0.83987251  0.16530074  0.25492805     0.09900
C1376       C  0.83074187  0.13675777  0.29082987     0.03600
C1377       C  0.81917768  0.12532187  0.29227729    -0.05100
C1378       C  0.82071958  0.11119420  0.27429140    -0.23500
C1379       C  0.83416672  0.10883068  0.25358963     0.12800
C1380       C  0.84566434  0.12048239  0.25151493    -0.12700
N1381       N  0.82890063  0.15032690  0.31184852     0.64500
H1382       H  0.80914914  0.12731379  0.30889177     0.12400
N1383       N  0.83612197  0.09496476  0.23362698     0.61100
H1384       H  0.85565009  0.11865609  0.23474031     0.08500
O1385       O  0.84974495  0.19718690  0.27902705    -0.40300
O1386       O  0.85757001  0.19601551  0.22541848    -0.39500
O1387       O  0.88603253  0.12042462  0.25838495    -0.39500
O1388       O  0.87789349  0.12272926  0.31152595    -0.37200
O1389       O  0.83005750  0.09443596  0.20378031    -0.38100
O1390       O  0.84657450  0.08501538  0.24220307    -0.34300
O1391       O  0.81852676  0.16048244  0.30402554    -0.35700
O1392       O  0.83509282  0.15043665  0.34160557    -0.40000
C1393       C  0.68884667  0.07769431  0.76344100    -0.13600
C1394       C  0.69967560  0.08566848  0.78360734     0.16700
C1395       C  0.69476267  0.09209278  0.81518999     0.03000
C1396       C  0.67952583  0.08943698  0.82723694    -0.12200
C1397       C  0.66882149  0.08027371  0.80844191    -0.03200
C1398       C  0.67354070  0.07517619  0.77502381     0.02300
C1399       C  0.71606684  0.08671191  0.77118968     0.09100
N1400       N  0.70493588  0.10175399  0.83488468     0.65500
H1401       H  0.67639677  0.09476267  0.85141999     0.18400
N1402       N  0.66320700  0.06693789  0.75264777     0.75900
H1403       H  0.69240630  0.07310535  0.73856264     0.09900
C1404       C  0.72838453  0.07844631  0.78811061     0.03600
C1405       C  0.74347927  0.07853273  0.77403607    -0.05100
C1406       C  0.74654391  0.08613779  0.74233161    -0.23500
C1407       C  0.73415471  0.09441802  0.72535417     0.12800
C1408       C  0.71914082  0.09475081  0.74007517    -0.12700
N1409       N  0.72548490  0.06867256  0.81770605     0.64500
H1410       H  0.75265739  0.07176308  0.78706728     0.12400
N1411       N  0.73642758  0.10217226  0.69275857     0.61100
H1412       H  0.70969061  0.10093013  0.72658303     0.08500
O1413       O  0.66718447  0.05337647  0.74310741    -0.40300
O1414       O  0.65355932  0.07471029  0.73416223    -0.39500
O1415       O  0.70454484  0.11638039  0.82967671    -0.39500
O1416       O  0.71108882  0.09637012  0.86243817    -0.37200
O1417       O  0.73255188  0.09539685  0.66520036    -0.38100
O1418       O  0.73890762  0.11670767  0.69200280    -0.34300
O1419       O  0.71864457  0.05581472  0.81361379    -0.35700
O1420       O  0.73284927  0.07097486  0.84557374    -0.40000
C1421       C  0.61574416  0.08018392  0.04132674    -0.13600
C1422       C  0.62940456  0.07542822  0.02403105     0.16700
C1423       C  0.64319700  0.07254317  0.04335512     0.03000
C1424       C  0.64313839  0.07444576  0.07927720    -0.12200
C1425       C  0.62954675  0.07942036  0.09690027    -0.03200
C1426       C  0.61570482  0.08216467  0.07746823     0.02300
C1427       C  0.62948796  0.07469971  0.98565636     0.09100
N1428       N  0.65755620  0.06827274  0.02676406     0.65500
H1429       H  0.65387709  0.07188995  0.09350109     0.18400
N1430       N  0.60172735  0.08770860  0.09358916     0.75900
H1431       H  0.60513242  0.08267384  0.02657941     0.09900
C1432       C  0.63016623  0.06031844  0.96812609     0.03600
C1433       C  0.63180588  0.06020247  0.93200279    -0.05100
C1434       C  0.63253564  0.07421056  0.91275516    -0.23500
C1435       C  0.63139773  0.08860611  0.93022794     0.12800
C1436       C  0.62986226  0.08873515  0.96640103    -0.12700
N1437       N  0.62914656  0.04574843  0.98657880     0.64500
H1438       H  0.63313506  0.04908959  0.91915813     0.12400
N1439       N  0.63186929  0.10317682  0.91164101     0.61100
H1440       H  0.62932741  0.09985493  0.97963110     0.08500
O1441       O  0.59008682  0.07879470  0.09546927    -0.40300
O1442       O  0.59965460  0.10228399  0.09677536    -0.39500
O1443       O  0.66676413  0.07891218  0.01725350    -0.39500
O1444       O  0.66268296  0.05437062  0.02963660    -0.37200
O1445       O  0.61917350  0.10989537  0.90274814    -0.38100
O1446       O  0.64439598  0.11085075  0.91126036    -0.34300
O1447       O  0.61580497  0.04023188  0.99287892    -0.35700
O1448       O  0.64105213  0.03682507  0.98864041    -0.40000
C1449       C  0.72122346  0.07750263  0.22309467    -0.13600
C1450       C  0.71093295  0.08742205  0.24117556     0.16700
C1451       C  0.71676506  0.09595384  0.26931110     0.03000
C1452       C  0.73265819  0.09461276  0.27851525    -0.12200
C1453       C  0.74301937  0.08467347  0.26048660    -0.03200
C1454       C  0.73708482  0.07599102  0.23252032     0.02300
C1455       C  0.69419290  0.08839811  0.23016406     0.09100
N1456       N  0.70675626  0.10610432  0.28870578     0.65500
H1457       H  0.73684231  0.10129167  0.30029217     0.18400
N1458       N  0.74678816  0.06514486  0.21420713     0.75900
H1459       H  0.71681982  0.07062697  0.20183093     0.09900
C1460       C  0.69008030  0.09411250  0.19702926     0.03600
C1461       C  0.67471696  0.09275997  0.18476249    -0.05100
C1462       C  0.66293517  0.08531245  0.20439523    -0.23500
C1463       C  0.66700567  0.08049981  0.23884598     0.12800
C1464       C  0.68245452  0.08211540  0.25124148    -0.12700
N1465       N  0.70159545  0.10092355  0.17491192     0.64500
H1466       H  0.67263834  0.09723582  0.15876519     0.12400
N1467       N  0.65579598  0.07339272  0.26131604     0.61100
H1468       H  0.68545936  0.07772190  0.27696149     0.08500
O1469       O  0.75245601  0.06910108  0.18530028    -0.40300
O1470       O  0.74708405  0.05089649  0.22337945    -0.39500
O1471       O  0.70206916  0.10169166  0.31817858    -0.39500
O1472       O  0.70581460  0.12044019  0.28044487    -0.37200
O1473       O  0.65561259  0.05865548  0.26425351    -0.38100
O1474       O  0.64945653  0.08156363  0.28456420    -0.34300
O1475       O  0.70763143  0.09284634  0.15112637    -0.35700
O1476       O  0.70330401  0.11558032  0.17460740    -0.40000
C1477       C  0.62586908  0.97630647  0.86905808    -0.13600
C1478       C  0.62260864  0.98482359  0.83842516     0.16700
C1479       C  0.61919647  0.97654423  0.80785692     0.03000
C1480       C  0.62033490  0.96020290  0.80785051    -0.12200
C1481       C  0.62363931  0.95177008  0.83836540    -0.03200
C1482       C  0.62609925  0.95988826  0.86940531     0.02300
C1483       C  0.62550923  0.00195929  0.83735214     0.09100
N1484       N  0.61450553  0.98456022  0.77664335     0.65500
H1485       H  0.61853665  0.95401313  0.78382920     0.18400
N1486       N  0.63022756  0.95173530  0.90075308     0.75900
H1487       H  0.62903140  0.98237984  0.89248119     0.09900
C1488       C  0.61925894  0.01238755  0.86192193     0.03600
C1489       C  0.62349887  0.02820392  0.86107743    -0.05100
C1490       C  0.63382215  0.03409672  0.83583432    -0.23500
C1491       C  0.63965342  0.02357248  0.81068012     0.12800
C1492       C  0.63584327  0.00773746  0.81238978    -0.12700
N1493       N  0.60832354  0.00722170  0.88742446     0.64500
H1494       H  0.61851636  0.03580016  0.88040758     0.12400
N1495       N  0.64848191  0.02875880  0.78152560     0.61100
H1496       H  0.64100544  0.99987620  0.79365173     0.08500
O1497       O  0.61948658  0.94690499  0.92035925    -0.40300
O1498       O  0.64390024  0.95309149  0.91283644    -0.39500
O1499       O  0.62307485  0.98370013  0.75013528    -0.39500
O1500       O  0.60046656  0.98923075  0.77331983    -0.37200
O1501       O  0.64119288  0.03427267  0.75546050    -0.38100
O1502       O  0.66235480  0.02369742  0.77789342    -0.34300
O1503       O  0.61244202  0.00647001  0.91887038    -0.35700
O1504       O  0.59394474  0.00679764  0.87973745    -0.40000
C1505       C  0.70870936  0.88224459  0.76301546    -0.13600
C1506       C  0.69747568  0.89294500  0.74986013     0.16700
C1507       C  0.70187510  0.90365823  0.72377268     0.03000
C1508       C  0.71738048  0.90384763  0.71199504    -0.12200
C1509       C  0.72895497  0.89374851  0.72634516    -0.03200
C1510       C  0.72435899  0.88257400  0.75166628     0.02300
C1511       C  0.68252062  0.89531660  0.76868060     0.09100
N1512       N  0.69105376  0.91538527  0.71126288     0.65500
H1513       H  0.72049709  0.91252307  0.69256798     0.18400
N1514       N  0.73550283  0.87206365  0.76758824     0.75900
H1515       H  0.70552778  0.87421656  0.78371952     0.09900
C1516       C  0.66815455  0.88914371  0.75770165     0.03600
C1517       C  0.65414724  0.89361832  0.77430259    -0.05100
C1518       C  0.65416414  0.90411108  0.80238347    -0.23500
C1519       C  0.66899427  0.90911259  0.81480581     0.12800
C1520       C  0.68276980  0.90491949  0.79759944    -0.12700
N1521       N  0.66762626  0.87805208  0.73034079     0.64500
H1522       H  0.64343173  0.88859348  0.76500090     0.12400
N1523       N  0.67049131  0.91836055  0.84522005     0.61100
H1524       H  0.69384754  0.90941795  0.80675309     0.08500
O1525       O  0.73519082  0.85768369  0.76046939    -0.40300
O1526       O  0.74292648  0.87638696  0.79407486    -0.39500
O1527       O  0.69082222  0.92872731  0.72498442    -0.39500
O1528       O  0.68396344  0.91342033  0.68292028    -0.37200
O1529       O  0.67568423  0.91172320  0.87240320    -0.38100
O1530       O  0.67207488  0.93297750  0.84185799    -0.34300
O1531       O  0.66892244  0.86362710  0.73758547    -0.35700
O1532       O  0.66243971  0.88227690  0.70095067    -0.40000
C1533       C  0.63899390  0.98521290  0.15836911    -0.13600
C1534       C  0.62438085  0.99144037  0.16753060     0.16700
C1535       C  0.61183011  0.98131945  0.17366733     0.03000
C1536       C  0.61433444  0.96505954  0.17254717     0.01400
C1537       C  0.62909841  0.95867073  0.16390707    -0.03200
C1538       C  0.64141653  0.96905609  0.15578470     0.02300
C1539       C  0.62285400  0.00860824  0.17031906     0.09100
N1540       N  0.59641198  0.98737525  0.17982660     0.65500
H1541       H  0.60465804  0.95746063  0.17868228     0.18400
N1542       N  0.65616369  0.96361553  0.14282915     0.75900
H1543       H  0.64856884  0.99302394  0.15256399     0.09900
C1544       C  0.62617055  0.01606306  0.20176097     0.03600
C1545       C  0.62835478  0.03227801  0.20213702    -0.05100
C1546       C  0.62724387  0.04127354  0.17148341    -0.23500
C1547       C  0.62304782  0.03386691  0.14031277     0.12800
C1548       C  0.62098251  0.01761798  0.13999968    -0.12700
N1549       N  0.62824901  0.00717133  0.23310231     0.64500
H1550       H  0.63138455  0.03781995  0.22633817     0.12400
N1551       N  0.62223576  0.04230308  0.10817543     0.61100
H1552       H  0.61872385  0.01188933  0.11560396     0.08500
O1553       O  0.66823749  0.96476581  0.16160628    -0.40300
O1554       O  0.65781319  0.96230019  0.11051339    -0.39500
O1555       O  0.58743940  0.99026380  0.15436255    -0.39500
O1556       O  0.59074197  0.98660015  0.20992763    -0.37200
O1557       O  0.63340154  0.04082521  0.08707437    -0.38100
O1558       O  0.60900438  0.04688465  0.09696534    -0.34300
O1559       O  0.64183288  0.00270715  0.24226579    -0.35700
O1560       O  0.61710197  0.00627142  0.25437938    -0.40000
C1561       C  0.61251217  0.92708593  0.03465290    -0.13600
C1562       C  0.61308972  0.91189809  0.02127887     0.16700
C1563       C  0.61546066  0.89905058  0.04396130     0.03000
C1564       C  0.61854072  0.90159087  0.07902423    -0.12200
C1565       C  0.61938677  0.91684458  0.09193253    -0.03200
C1566       C  0.61560976  0.92967948  0.06980173     0.02300
C1567       C  0.61548532  0.91010406  0.98370686     0.09100
N1568       N  0.61601499  0.88343227  0.03118216     0.65500
H1569       H  0.62109451  0.89161418  0.09589869     0.18400
N1570       N  0.61674297  0.94544984  0.08142812     0.75900
H1571       H  0.61100987  0.93705370  0.01718606     0.09900
C1572       C  0.60309207  0.90985117  0.95966205     0.03600
C1573       C  0.60635920  0.90971002  0.92402342    -0.05100
C1574       C  0.62190971  0.90994089  0.91186104    -0.23500
C1575       C  0.63428807  0.90975514  0.93655930     0.12800
C1576       C  0.63092306  0.90980291  0.97190186    -0.12700
N1577       N  0.58719579  0.90986063  0.97105018     0.64500
H1578       H  0.59665728  0.90957776  0.90582039     0.12400
N1579       N  0.65036631  0.91047707  0.92673190     0.61100
H1580       H  0.64051640  0.91015364  0.99041689     0.08500
O1581       O  0.62948493  0.95256758  0.07767710    -0.40300
O1582       O  0.60438188  0.95321716  0.08754979    -0.39500
O1583       O  0.62910631  0.87702023  0.02493245    -0.39500
O1584       O  0.60391724  0.87514172  0.03287100    -0.37200
O1585       O  0.65691694  0.92362411  0.92606956    -0.38100
O1586       O  0.65879169  0.89825017  0.92982051    -0.34300
O1587       O  0.57927179  0.92246457  0.97043841    -0.35700
O1588       O  0.58037800  0.89700630  0.97588135    -0.40000
C1589       C  0.68912596  0.90732072  0.17698561    -0.13600
C1590       C  0.69133807  0.90065643  0.21004861     0.16700
C1591       C  0.67800584  0.89719322  0.23002668     0.03000
C1592       C  0.66300382  0.90158811  0.21815788    -0.12200
C1593       C  0.66066807  0.90909194  0.18571636    -0.03200
C1594       C  0.67409627  0.91128910  0.16444184     0.02300
C1595       C  0.70748543  0.89917027  0.22501066     0.09100
N1596       N  0.67950312  0.88914295  0.26262483     0.65500
H1597       H  0.65340576  0.89933739  0.23543657     0.18400
N1598       N  0.67280032  0.91742077  0.12981225     0.75900
H1599       H  0.69918152  0.91013809  0.16119111     0.09900
C1600       C  0.72004174  0.89190820  0.20724199     0.03600
C1601       C  0.73516987  0.89166887  0.22175074    -0.05100
C1602       C  0.73814448  0.89849190  0.25396248    -0.23500
C1603       C  0.72563982  0.90596806  0.27149044     0.12800
C1604       C  0.71059202  0.90630276  0.25686366    -0.12700
N1605       N  0.71762776  0.88447543  0.17474189     0.64500
H1606       H  0.74461456  0.88594144  0.20784757     0.12400
N1607       N  0.72813288  0.91403186  0.30325467     0.61100
H1608       H  0.70134031  0.91262563  0.27011328     0.08500
O1609       O  0.67051675  0.93188680  0.12466174    -0.40300
O1610       O  0.67670776  0.90890020  0.10469237    -0.39500
O1611       O  0.67632266  0.89625999  0.29024316    -0.39500
O1612       O  0.68072561  0.87439112  0.26319781    -0.37200
O1613       O  0.73175263  0.92831292  0.30239794    -0.38100
O1614       O  0.72379452  0.90788919  0.33147701    -0.34300
O1615       O  0.72334495  0.89045928  0.14761000    -0.35700
O1616       O  0.71315447  0.87045886  0.17436897    -0.40000
C1617       C  0.31450711  0.07366685  0.79579823    -0.13600
C1618       C  0.31278665  0.08303042  0.76602368     0.16700
C1619       C  0.32634904  0.08925021  0.75058192     0.03000
C1620       C  0.34128531  0.08576411  0.76471358    -0.12200
C1621       C  0.34318589  0.07590201  0.79415915    -0.03200
C1622       C  0.32931815  0.06996168  0.80975170     0.02300
C1623       C  0.29668981  0.08546790  0.75132956     0.09100
N1624       N  0.32519914  0.09926575  0.72069382     0.65500
H1625       H  0.35127687  0.09060889  0.75163403     0.18400
N1626       N  0.32996601  0.05949502  0.83901534     0.75900
H1627       H  0.30420468  0.06872901  0.80784088     0.09900
C1628       C  0.29209843  0.07838645  0.72014127     0.03600
C1629       C  0.27645728  0.07949748  0.70894255    -0.05100
C1630       C  0.26485635  0.08705572  0.72874732    -0.23500
C1631       C  0.26945466  0.09419333  0.76001637     0.12800
C1632       C  0.28524994  0.09341869  0.77082797    -0.12700
N1633       N  0.30279192  0.06878442  0.70108856     0.64500
H1634       H  0.27326728  0.07368222  0.68518457     0.12400
N1635       N  0.25824242  0.10179544  0.78173322     0.61100
H1636       H  0.28853041  0.09865726  0.79519783     0.08500
O1637       O  0.32789044  0.04507463  0.83426743    -0.40300
O1638       O  0.32769737  0.06493418  0.86886084    -0.39500
O1639       O  0.32398224  0.11387702  0.72473977    -0.39500
O1640       O  0.32941115  0.09409807  0.69164047    -0.37200
O1641       O  0.25229004  0.09425868  0.80662742    -0.38100
O1642       O  0.25690220  0.11653692  0.78071048    -0.34300
O1643       O  0.30591279  0.05509596  0.71209208    -0.35700
O1644       O  0.30570178  0.07227059  0.66991516    -0.40000
C1645       C  0.39040541  0.07358842  0.03017555    -0.13600
C1646       C  0.37894540  0.06666377  0.00930192     0.16700
C1647       C  0.36603145  0.05949368  0.02558222     0.03000
C1648       C  0.36440361  0.06004179  0.06161974    -0.12200
C1649       C  0.37560992  0.06727750  0.08237164    -0.03200
C1650       C  0.38893816  0.07375349  0.06650582     0.02300
C1651       C  0.38051220  0.06675214  0.97076277     0.09100
N1652       N  0.35421308  0.05190725  0.00584189     0.65500
H1653       H  0.35418955  0.05486285  0.07354347     0.18400
N1654       N  0.40106838  0.08050671  0.08675650     0.75900
H1655       H  0.40061923  0.07873389  0.01826114     0.09900
C1656       C  0.38067050  0.08081859  0.95105359     0.03600
C1657       C  0.37966823  0.08034549  0.91471386    -0.05100
C1658       C  0.37902766  0.06602533  0.89730632    -0.23500
C1659       C  0.38020421  0.05197260  0.91693341     0.12800
C1660       C  0.38088650  0.05246288  0.95322774    -0.12700
N1661       N  0.38135686  0.09568853  0.96749952     0.64500
H1662       H  0.37904490  0.09124707  0.90001280     0.12400
N1663       N  0.37958076  0.03705412  0.90078888     0.61100
H1664       H  0.38127205  0.04154849  0.96788347     0.08500
O1665       O  0.40194299  0.09522526  0.08832374    -0.40300
O1666       O  0.41284052  0.07215283  0.09521755    -0.39500
O1667       O  0.35465225  0.03717427  0.00345254    -0.39500
O1668       O  0.34164916  0.05924244  0.99856587    -0.37200
O1669       O  0.39218019  0.02941741  0.89638849    -0.38100
O1670       O  0.36674636  0.02990252  0.90039190    -0.34300
O1671       O  0.39431920  0.10257132  0.96931949    -0.35700
O1672       O  0.36884066  0.10332347  0.97284675    -0.40000
C1673       C  0.29221009  0.08530536  0.25834262    -0.13600
C1674       C  0.29496429  0.09320561  0.22688402     0.16700
C1675       C  0.28240298  0.10134494  0.21052072     0.03000
C1676       C  0.26736369  0.10100197  0.22500888    -0.12200
C1677       C  0.26447043  0.09273873  0.25599152    -0.03200
C1678       C  0.27722360  0.08508255  0.27310979     0.02300
C1679       C  0.31046359  0.09113488  0.20976216     0.09100
N1680       N  0.28475441  0.11014431  0.17929138     0.65500
H1681       H  0.25786793  0.10718701  0.21170302     0.18400
N1682       N  0.27513984  0.07651086  0.30478797     0.75900
H1683       H  0.30163168  0.07869895  0.27089330     0.09900
C1684       C  0.32460409  0.09475749  0.22660011     0.03600
C1685       C  0.33900651  0.09013370  0.21228750    -0.05100
C1686       C  0.33982679  0.08154171  0.18127389    -0.23500
C1687       C  0.32547992  0.07873373  0.16353939     0.12800
C1688       C  0.31113885  0.08352598  0.17786201    -0.12700
N1689       N  0.32455192  0.10273536  0.25894250     0.64500
H1690       H  0.34933699  0.09282663  0.22702058     0.12400
N1691       N  0.32507769  0.07017594  0.13189893     0.61100
H1692       H  0.30036602  0.08042451  0.16481957     0.08500
O1693       O  0.27225536  0.06206629  0.30380064    -0.40300
O1694       O  0.27943143  0.08244311  0.33301232    -0.39500
O1695       O  0.27985584  0.10485917  0.15090416    -0.39500
O1696       O  0.28826888  0.12441505  0.18116099    -0.37200
O1697       O  0.32334952  0.07760963  0.10361927    -0.38100
O1698       O  0.32199019  0.05576464  0.13293370    -0.34300
O1699       O  0.32767280  0.09516986  0.28650260    -0.35700
O1700       O  0.32497821  0.11750335  0.25901522    -0.40000
C1701       C  0.37021296  0.97326436  0.86776661    -0.13600
C1702       C  0.37903113  0.97868505  0.83953191     0.16700
C1703       C  0.38706257  0.96761998  0.81888806     0.03000
C1704       C  0.38485416  0.95158746  0.82486801    -0.12200
C1705       C  0.37403583  0.94646104  0.84954244    -0.03200
C1706       C  0.36678378  0.95743240  0.87158880     0.02300
C1707       C  0.37814435  0.99568630  0.83056078     0.09100
N1708       N  0.39633147  0.97234261  0.78994825     0.65500
H1709       H  0.39046758  0.94318963  0.80791443     0.18400
N1710       N  0.35500049  0.95297006  0.89601275     0.75900
H1711       H  0.36473891  0.98153068  0.88519060     0.09900
C1712       C  0.36351571  0.00370272  0.83026996     0.03600
C1713       C  0.36287906  0.01980505  0.82501114    -0.05100
C1714       C  0.37639063  0.02846124  0.81828332    -0.23500
C1715       C  0.39098809  0.02043336  0.81673281     0.12800
C1716       C  0.39177719  0.00421923  0.82364000    -0.12700
N1717       N  0.34904041  0.99571680  0.83516613     0.64500
H1718       H  0.35155382  0.02555882  0.82705438     0.12400
N1719       N  0.40498896  0.02834069  0.80709764     0.61100
H1720       H  0.40311477  0.99835495  0.82385778     0.08500
O1721       O  0.34089577  0.95264940  0.88606480    -0.40300
O1722       O  0.35777957  0.95427885  0.92797741    -0.39500
O1723       O  0.41108261  0.97157030  0.79236622    -0.39500
O1724       O  0.39004456  0.97338635  0.76032285    -0.37200
O1725       O  0.40788522  0.03052896  0.77537256    -0.38100
O1726       O  0.41591338  0.02960204  0.82900721    -0.34300
O1727       O  0.34107444  0.99829171  0.86205666    -0.35700
O1728       O  0.34257119  0.98938450  0.80954806    -0.40000
C1729       C  0.27381795  0.90284524  0.80821605    -0.13600
C1730       C  0.28591444  0.89672303  0.78769109     0.16700
C1731       C  0.28211133  0.88957209  0.75616019     0.03000
C1732       C  0.26648150  0.88948663  0.74475306    -0.12200
C1733       C  0.25439838  0.89649429  0.76423432    -0.03200
C1734       C  0.25816953  0.90272606  0.79694858     0.02300
C1735       C  0.30240906  0.89957371  0.79786879     0.09100
N1736       N  0.29408715  0.88332363  0.73431707     0.65500
H1737       H  0.26394020  0.88454278  0.71965631     0.18400
N1738       N  0.24638080  0.90933915  0.81873429     0.75900
H1739       H  0.27662300  0.90821942  0.83274387     0.09900
C1740       C  0.30808134  0.91492335  0.79751938     0.03600
C1741       C  0.32337349  0.91772330  0.80795905    -0.05100
C1742       C  0.33355685  0.90575642  0.82059417    -0.23500
C1743       C  0.32793485  0.89014728  0.81945162     0.12800
C1744       C  0.31250086  0.88725819  0.80827475    -0.12700
N1745       N  0.29844027  0.92780370  0.78585412     0.64500
H1746       H  0.32722873  0.93009921  0.80454229     0.12400
N1747       N  0.33778014  0.87708713  0.82901968     0.61100
H1748       H  0.30831384  0.87528265  0.80801539     0.08500
O1749       O  0.24536276  0.92402336  0.82173421    -0.40300
O1750       O  0.23952730  0.90063067  0.84036006    -0.39500
O1751       O  0.29676280  0.86874365  0.73441251    -0.39500
O1752       O  0.29962831  0.89176684  0.71038685    -0.37200
O1753       O  0.33569572  0.87028289  0.85782554    -0.38100
O1754       O  0.34543743  0.87009279  0.80581379    -0.34300
O1755       O  0.29204126  0.93659689  0.80789555    -0.35700
O1756       O  0.29933509  0.93242949  0.75474200    -0.40000
C1757       C  0.36410295  0.97101593  0.13423152    -0.13600
C1758       C  0.37078322  0.97917863  0.16182902     0.16700
C1759       C  0.37600116  0.97062463  0.19146626     0.03000
C1760       C  0.37383209  0.95439863  0.19356635    -0.12200
C1761       C  0.36697082  0.94636029  0.16614219    -0.03200
C1762       C  0.36235715  0.95472161  0.13602827     0.02300
C1763       C  0.37021883  0.99662941  0.16139382     0.09100
N1764       N  0.38356153  0.97824572  0.21961781     0.65500
H1765       H  0.37733198  0.94809195  0.21695263     0.18400
N1766       N  0.35500415  0.94697337  0.10789689     0.75900
H1767       H  0.35958173  0.97736847  0.11176557     0.09900
C1768       C  0.37663144  0.00575238  0.13432693     0.03600
C1769       C  0.37531858  0.02216014  0.13506657    -0.05100
C1770       C  0.36748640  0.02984793  0.16211840    -0.23500
C1771       C  0.36062341  0.02056573  0.18869452     0.12800
C1772       C  0.36207178  0.00423468  0.18789422    -0.12700
N1773       N  0.38458657  0.99860029  0.10597667     0.64500
H1774       H  0.38025026  0.02888972  0.11387883     0.12400
N1775       N  0.35218256  0.02727637  0.21696259     0.61100
H1776       H  0.35648614  0.99738857  0.20806110     0.08500
O1777       O  0.34031057  0.94804350  0.10448306    -0.40300
O1778       O  0.36321665  0.94246224  0.08269550    -0.39500
O1779       O  0.37614333  0.98051448  0.24737152    -0.39500
O1780       O  0.39830354  0.97925498  0.21969949    -0.37200
O1781       O  0.35903450  0.02859491  0.24578785    -0.38100
O1782       O  0.33739418  0.02692570  0.21643827    -0.34300
O1783       O  0.37748948  0.99725363  0.07741927    -0.35700
O1784       O  0.39934448  0.99741795  0.10673440    -0.40000
C1785       C  0.36072630  0.89944131  0.03709113    -0.13600
C1786       C  0.37631095  0.89832255  0.02607846     0.16700
C1787       C  0.38843100  0.90003571  0.05072970     0.03000
C1788       C  0.38472380  0.90226443  0.08578350    -0.12200
C1789       C  0.36906285  0.90336818  0.09681830    -0.03200
C1790       C  0.35696728  0.90209189  0.07171197     0.02300
C1791       C  0.37911636  0.89750454  0.98812175     0.09100
N1792       N  0.40452424  0.89975703  0.04064611     0.65500
H1793       H  0.39420580  0.90316824  0.10438709     0.18400
N1794       N  0.34082071  0.90466456  0.08003702     0.75900
H1795       H  0.35128959  0.89909627  0.01821266     0.09900
C1796       C  0.37194879  0.88598994  0.96778908     0.03600
C1797       C  0.37040946  0.88824652  0.93188678    -0.05100
C1798       C  0.37591193  0.90186938  0.91533088    -0.23500
C1799       C  0.38488703  0.91239560  0.93538669     0.12800
C1800       C  0.38613300  0.91020696  0.97139188    -0.12700
N1801       N  0.36540601  0.87233297  0.98351481     0.64500
H1802       H  0.36418796  0.87957735  0.91711660     0.12400
N1803       N  0.39205973  0.92592773  0.92066135     0.61100
H1804       H  0.39165879  0.91918362  0.98658684     0.08500
O1805       O  0.33163806  0.89321111  0.07994350    -0.40300
O1806       O  0.33513149  0.91835583  0.07752708    -0.39500
O1807       O  0.41174239  0.91251089  0.03795715    -0.39500
O1808       O  0.41228123  0.88708754  0.04315178    -0.37200
O1809       O  0.38641499  0.93925842  0.92750123    -0.38100
O1810       O  0.40624533  0.92491729  0.91169206    -0.34300
O1811       O  0.35072032  0.87130134  0.98625182    -0.35700
O1812       O  0.37387580  0.86018926  0.98748702    -0.40000
C1813       C  0.31736429  0.90372919  0.25576295    -0.13600
C1814       C  0.30531301  0.89650471  0.23719166     0.16700
C1815       C  0.30904535  0.88995844  0.20477540     0.03000
C1816       C  0.32400376  0.89183778  0.19063814    -0.12200
C1817       C  0.33583579  0.90022327  0.20774506    -0.03200
C1818       C  0.33248684  0.90535244  0.24186983     0.02300
C1819       C  0.28871649  0.89754702  0.24991186     0.09100
N1820       N  0.29765178  0.88165506  0.18520319     0.65500
H1821       H  0.32574700  0.88694383  0.16510691     0.18400
N1822       N  0.34410767  0.91286300  0.26238070     0.75900
H1823       H  0.31487471  0.90894419  0.28063061     0.09900
C1824       C  0.28452271  0.89372678  0.28439120     0.03600
C1825       C  0.26910169  0.89640887  0.29584483    -0.05100
C1826       C  0.25742190  0.90270994  0.27361850    -0.23500
C1827       C  0.26148884  0.90601264  0.23882804     0.12800
C1828       C  0.27699119  0.90371629  0.22765151    -0.12700
N1829       N  0.29568924  0.88695432  0.30814370     0.64500
H1830       H  0.26630089  0.89357157  0.32254204     0.12400
N1831       N  0.25010660  0.91176420  0.21435513     0.61100
H1832       H  0.27992730  0.90720729  0.20143642     0.08500
O1833       O  0.35172336  0.90483787  0.28460921    -0.40300
O1834       O  0.34377190  0.92759070  0.26484185    -0.39500
O1835       O  0.29212362  0.88784179  0.15778212    -0.39500
O1836       O  0.29656250  0.86704615  0.18970452    -0.37200
O1837       O  0.24959373  0.92619192  0.20681616    -0.38100
O1838       O  0.24335562  0.90221231  0.19478622    -0.34300
O1839       O  0.30080930  0.89510767  0.33266754    -0.35700
O1840       O  0.29725699  0.87224108  0.30984814    -0.40000
C1841       C  0.08582229  0.28407420  0.73005608    -0.13600
C1842       C  0.09229239  0.28603298  0.76321807     0.16700
C1843       C  0.09866189  0.27282239  0.78089526     0.03000
C1844       C  0.09827240  0.25803502  0.76562392    -0.12200
C1845       C  0.09164248  0.25598865  0.73265428    -0.03200
C1846       C  0.08546543  0.26927933  0.71464277     0.02300
C1847       C  0.09068161  0.30151099  0.78036236     0.09100
N1848       N  0.10564165  0.27422846  0.81440755     0.65500
H1849       H  0.10317036  0.24806454  0.77984315     0.18400
N1850       N  0.07803653  0.26790659  0.68155698     0.75900
H1851       H  0.08043545  0.29399059  0.71654865     0.09900
C1852       C  0.09638919  0.31537117  0.76521308     0.03600
C1853       C  0.09306937  0.32990144  0.78027815    -0.05100
C1854       C  0.08397139  0.33121124  0.81069937    -0.23500
C1855       C  0.07836120  0.31707946  0.82581031     0.12800
C1856       C  0.08187302  0.30257536  0.81078661    -0.12700
N1857       N  0.10531742  0.31498149  0.73396279     0.64500
H1858       H  0.09715558  0.34005888  0.76642182     0.12400
N1859       N  0.06847663  0.31712968  0.85563923     0.61100
H1860       H  0.07695395  0.29207480  0.82214027     0.08500
O1861       O  0.08561453  0.27113673  0.65444538    -0.40300
O1862       O  0.06331160  0.26685273  0.67989199    -0.39500
O1863       O  0.09827367  0.26956013  0.84078244    -0.39500
O1864       O  0.12016617  0.27660730  0.81676964    -0.37200
O1865       O  0.07370839  0.31130934  0.88369379    -0.38100
O1866       O  0.05383315  0.31849620  0.85151542    -0.34300
O1867       O  0.09890245  0.31923084  0.70576348    -0.35700
O1868       O  0.12007881  0.31418062  0.73583985    -0.40000
C1869       C  0.06576823  0.36453963  0.97134384    -0.13600
C1870       C  0.07432748  0.37761998  0.98165725     0.16700
C1871       C  0.08272059  0.38614456  0.95649938     0.03000
C1872       C  0.08243376  0.38148641  0.92175081    -0.12200
C1873       C  0.07394751  0.36837419  0.91152539    -0.03200
C1874       C  0.06549878  0.35989223  0.93661085     0.02300
C1875       C  0.07572835  0.38082092  0.01927821     0.09100
N1876       N  0.09151313  0.39957776  0.96578041     0.65500
H1877       H  0.08915412  0.38794879  0.90283770     0.18400
N1878       N  0.05662413  0.34652761  0.92715272     0.75900
H1879       H  0.05947291  0.35773838  0.99052439     0.09900
C1880       C  0.06295748  0.38650746  0.03872272     0.03600
C1881       C  0.06368038  0.38613306  0.07509409    -0.05100
C1882       C  0.07672597  0.37955023  0.09265976    -0.23500
C1883       C  0.09012410  0.37548838  0.07303920     0.12800
C1884       C  0.08947142  0.37607209  0.03669229    -0.12700
N1885       N  0.04888908  0.39194953  0.02196888     0.64500
H1886       H  0.05354472  0.39006610  0.08941950     0.12400
N1887       N  0.10447425  0.37072146  0.08957494     0.61100
H1888       H  0.09953097  0.37209663  0.02196294     0.08500
O1889       O  0.06118458  0.33298913  0.93651274    -0.40300
O1890       O  0.04375025  0.34829526  0.91124526    -0.39500
O1891       O  0.10624308  0.39844854  0.96826591    -0.39500
O1892       O  0.08511135  0.41297920  0.96351271    -0.37200
O1893       O  0.11029222  0.35736533  0.08346991    -0.38100
O1894       O  0.11294624  0.38094939  0.10329334    -0.34300
O1895       O  0.03783624  0.38254259  0.01723751    -0.35700
O1896       O  0.04624394  0.40649162  0.01899449    -0.40000
C1897       C  0.09245686  0.28906655  0.26154304    -0.13600
C1898       C  0.08848293  0.29146978  0.22658502     0.16700
C1899       C  0.08702865  0.27838880  0.20501704     0.03000
C1900       C  0.08892923  0.26318067  0.21891367    -0.12200
C1901       C  0.09221129  0.26065036  0.25434647    -0.03200
C1902       C  0.09437014  0.27389674  0.27556318     0.02300
C1903       C  0.08488387  0.30766115  0.21392536     0.09100
N1904       N  0.08283122  0.28033176  0.16933464     0.65500
H1905       H  0.08725192  0.25329390  0.20202952     0.18400
N1906       N  0.09804244  0.27226120  0.31161175     0.75900
H1907       H  0.09368448  0.29906789  0.27831960     0.09900
C1908       C  0.07073358  0.31511590  0.22296521     0.03600
C1909       C  0.06781610  0.33069667  0.21298174    -0.05100
C1910       C  0.07846376  0.33920425  0.19229150    -0.23500
C1911       C  0.09322436  0.33195120  0.18548737     0.12800
C1912       C  0.09610282  0.31621302  0.19554658    -0.12700
N1913       N  0.05907606  0.30691559  0.24217754     0.64500
H1914       H  0.05708779  0.33605893  0.22215494     0.12400
N1915       N  0.10576857  0.34058640  0.17043344     0.61100
H1916       H  0.10738820  0.31080991  0.19009853     0.08500
O1917       O  0.08712971  0.27296314  0.33353417    -0.40300
O1918       O  0.11202927  0.27386404  0.32158822    -0.39500
O1919       O  0.09315347  0.27850667  0.14636104    -0.39500
O1920       O  0.06854084  0.28066920  0.16072309    -0.37200
O1921       O  0.11221075  0.35116490  0.18778355    -0.38100
O1922       O  0.11251277  0.33547707  0.14372787    -0.34300
O1923       O  0.05804740  0.30881845  0.27446425    -0.35700
O1924       O  0.04813439  0.30026399  0.22622018    -0.40000
C1925       C  0.98252228  0.35623968  0.83221840    -0.13600
C1926       C  0.98825236  0.37087351  0.82220133     0.16700
C1927       C  0.97790915  0.38231927  0.80831741     0.03000
C1928       C  0.96189974  0.37909639  0.80549903    -0.12200
C1929       C  0.95609176  0.36439574  0.81546160    -0.03200
C1930       C  0.96664593  0.35281609  0.82866051     0.02300
C1931       C  0.00536588  0.37279048  0.82201212     0.09100
N1932       N  0.98355441  0.39708060  0.79630771     0.65500
H1933       H  0.95401216  0.38803668  0.79493337     0.18400
N1934       N  0.96148026  0.33765345  0.83935300     0.75900
H1935       H  0.99053729  0.34726301  0.84217712     0.09900
C1936       C  0.01381425  0.37595126  0.85246987     0.03600
C1937       C  0.03012987  0.37376529  0.85312738    -0.05100
C1938       C  0.03812301  0.36824513  0.82385207    -0.23500
C1939       C  0.02965409  0.36616912  0.79266465     0.12800
C1940       C  0.01341734  0.36847828  0.79211296    -0.12700
N1941       N  0.00591974  0.38088628  0.88311489     0.64500
H1942       H  0.03645258  0.37572208  0.87706360     0.12400
N1943       N  0.03725082  0.36209035  0.76103669     0.61100
H1944       H  0.00693990  0.36613863  0.76853526     0.08500
O1945       O  0.96427126  0.32605182  0.82026751    -0.40300
O1946       O  0.95775589  0.33529805  0.87057337    -0.39500
O1947       O  0.98595433  0.39923523  0.76436422    -0.39500
O1948       O  0.98327590  0.40866809  0.81627690    -0.37200
O1949       O  0.03803771  0.34786324  0.75263503    -0.38100
O1950       O  0.03803693  0.37241016  0.73744196    -0.34300
O1951       O  0.00376041  0.37119118  0.90752864    -0.35700
O1952       O  0.00386284  0.39533039  0.88838223    -0.40000
C1953       C  0.90705829  0.31230704  0.74616414    -0.13600
C1954       C  0.90093738  0.30110134  0.76916897     0.16700
C1955       C  0.89748256  0.30579187  0.80325056     0.03000
C1956       C  0.90095127  0.32096317  0.81408093    -0.12200
C1957       C  0.90810212  0.33203626  0.79195193    -0.03200
C1958       C  0.91049446  0.32757816  0.75693113     0.02300
C1959       C  0.89999545  0.28429015  0.75850892     0.09100
N1960       N  0.89061140  0.29519699  0.82761300     0.65500
H1961       H  0.89819151  0.32353781  0.84078628     0.18400
N1962       N  0.91685570  0.33824485  0.73199487     0.75900
H1963       H  0.90992875  0.30899991  0.71988823     0.09900
C1964       C  0.89271448  0.27972651  0.72731056     0.03600
C1965       C  0.89383141  0.26406837  0.71643313    -0.05100
C1966       C  0.90183792  0.25253957  0.73639168    -0.23500
C1967       C  0.90854651  0.25701908  0.76828674     0.12800
C1968       C  0.90778764  0.27271750  0.77862800    -0.12700
N1969       N  0.88391193  0.29077601  0.70663328     0.64500
H1970       H  0.88841459  0.26094574  0.69207385     0.12400
N1971       N  0.91669159  0.24592425  0.79007536     0.61100
H1972       H  0.91384549  0.27594575  0.80213903     0.08500
O1973       O  0.93127995  0.33743008  0.72502450    -0.40300
O1974       O  0.90768645  0.34525512  0.71100528    -0.39500
O1975       O  0.89880013  0.28991570  0.85260171    -0.39500
O1976       O  0.87587394  0.29446511  0.82929914    -0.37200
O1977       O  0.93143274  0.24476636  0.78841349    -0.38100
O1978       O  0.90963139  0.23973559  0.81532136    -0.34300
O1979       O  0.88903305  0.29495122  0.67735702    -0.35700
O1980       O  0.86980018  0.29369519  0.71419667    -0.40000
C1981       C  0.97375227  0.38459724  0.15966869    -0.13600
C1982       C  0.98473491  0.37267090  0.15312830     0.16700
C1983       C  0.97956403  0.35729312  0.14803466     0.03000
C1984       C  0.96357302  0.35415697  0.14863650    -0.12200
C1985       C  0.95242712  0.36593432  0.15592853    -0.03200
C1986       C  0.95768926  0.38140194  0.16140750     0.02300
C1987       C  0.00164523  0.37603263  0.15459009     0.09100
N1988       N  0.99045477  0.34449674  0.14498453     0.65500
H1989       H  0.95993054  0.34226423  0.14403880     0.18400
N1990       N  0.94722676  0.39380025  0.17115030     0.75900
H1991       H  0.97772794  0.39637394  0.16451456     0.09900
C1992       C  0.01105934  0.37530174  0.12475395     0.03600
C1993       C  0.02741053  0.37533045  0.12810501    -0.05100
C1994       C  0.03450797  0.37674904  0.16072784    -0.23500
C1995       C  0.02501445  0.37855310  0.19027814     0.12800
C1996       C  0.00868345  0.37817572  0.18700622    -0.12700
N1997       N  0.00414681  0.37433982  0.09104223     0.64500
H1998       H  0.03451214  0.37335778  0.10539176     0.12400
N1999       N  0.03182236  0.37964858  0.22405268     0.61100
H2000       H  0.00150216  0.37870305  0.21008029     0.08500
O2001       O  0.94402112  0.40454978  0.14936834    -0.40300
O2002       O  0.94538382  0.39651791  0.20293558    -0.39500
O2003       O  0.99537321  0.33762710  0.17217476    -0.39500
O2004       O  0.99187260  0.33772650  0.11627424    -0.37200
O2005       O  0.03266958  0.39286737  0.23814114    -0.38100
O2006       O  0.03372946  0.36739413  0.24233375    -0.34300
O2007       O  0.99904238  0.38667906  0.07625524    -0.35700
O2008       O  0.00594476  0.36204665  0.07360414    -0.40000
C2009       C  0.91266849  0.38067629  0.02547594    -0.13600
C2010       C  0.91697313  0.36801380  0.00463101     0.16700
C2011       C  0.92095271  0.35354888  0.02039364     0.03000
C2012       C  0.92011465  0.35180051  0.05640168    -0.12200
C2013       C  0.91528389  0.36425736  0.07762519    -0.03200
C2014       C  0.91193684  0.37899142  0.06175062     0.02300
C2015       C  0.91685124  0.36978360  0.96639604     0.09100
N2016       N  0.92566979  0.34043002  0.00007631     0.65500
H2017       H  0.92337266  0.34055752  0.06780294     0.18400
N2018       N  0.90724276  0.39223377  0.08161847     0.75900
H2019       H  0.90967993  0.39188566  0.01347524     0.09900
C2020       C  0.90304650  0.36748956  0.94722489     0.03600
C2021       C  0.90357152  0.36725792  0.91101193    -0.05100
C2022       C  0.91772758  0.36929877  0.89311422    -0.23500
C2023       C  0.93134003  0.37298998  0.91240626     0.12800
C2024       C  0.93080250  0.37294368  0.94881652    -0.12700
N2025       N  0.88852514  0.36463478  0.96426292     0.64500
H2026       H  0.89292487  0.36477197  0.89679667     0.12400
N2027       N  0.94595538  0.37611845  0.89595890     0.61100
H2028       H  0.94142221  0.37502079  0.96347460     0.08500
O2029       O  0.89281724  0.39540878  0.08446829    -0.40300
O2030       O  0.91705675  0.40284740  0.08714001    -0.39500
O2031       O  0.94007892  0.33743155  0.99616104    -0.39500
O2032       O  0.91574671  0.33019971  0.99246812    -0.37200
O2033       O  0.94912550  0.39011064  0.88808711    -0.38100
O2034       O  0.95707545  0.36631220  0.89950352    -0.34300
O2035       O  0.87861363  0.37566328  0.96705731    -0.35700
O2036       O  0.88439988  0.35071805  0.97009029    -0.40000
C2037       C  0.90621808  0.27855341  0.25718873    -0.13600
C2038       C  0.90378763  0.28024302  0.22128180     0.16700
C2039       C  0.90226490  0.26654874  0.20134972     0.03000
C2040       C  0.90343104  0.25171505  0.21736005    -0.12200
C2041       C  0.90594983  0.25004089  0.25325285    -0.03200
C2042       C  0.90706280  0.26373167  0.27329230     0.02300
C2043       C  0.90440591  0.29624255  0.20504569     0.09100
N2044       N  0.89932944  0.26744353  0.16486181     0.65500
H2045       H  0.90240461  0.24142026  0.20141286     0.18400
N2046       N  0.90894188  0.26287549  0.31007855     0.75900
H2047       H  0.90785791  0.28881800  0.27291335     0.09900
C2048       C  0.89571649  0.30908628  0.21802728     0.03600
C2049       C  0.89822709  0.32429433  0.20508499    -0.05100
C2050       C  0.90936773  0.32726368  0.17899079    -0.23500
C2051       C  0.91730472  0.31410585  0.16455107     0.12800
C2052       C  0.91499145  0.29900255  0.17807567    -0.12700
N2053       N  0.88418499  0.30692521  0.24435463     0.64500
H2054       H  0.89121568  0.33360505  0.21590395     0.12400
N2055       N  0.92813363  0.31581136  0.13658417     0.61100
H2056       H  0.92199085  0.28941440  0.16802362     0.08500
O2057       O  0.89696506  0.26339811  0.32913008    -0.40300
O2058       O  0.92230627  0.26485103  0.32332570    -0.39500
O2059       O  0.90994263  0.26323096  0.14412614    -0.39500
O2060       O  0.88537302  0.26868272  0.15408446    -0.37200
O2061       O  0.92333532  0.31379789  0.10600573    -0.38100
O2062       O  0.94263991  0.31458297  0.14281739    -0.34300
O2063       O  0.88684587  0.31175263  0.27456595    -0.35700
O2064       O  0.87031795  0.30379272  0.23564863    -0.40000
C2065       C  0.07394704  0.44362337  0.74792909    -0.13600
C2066       C  0.08847699  0.43778547  0.75963645     0.16700
C2067       C  0.10201811  0.44661688  0.75351786     0.03000
C2068       C  0.10076272  0.46123257  0.73638642    -0.12200
C2069       C  0.08618653  0.46705458  0.72432496    -0.03200
C2070       C  0.07267650  0.45803820  0.73033791     0.02300
C2071       C  0.08908395  0.42186264  0.77544533     0.09100
N2072       N  0.11715472  0.44056727  0.76302384     0.65500
H2073       H  0.11126951  0.46791548  0.73179302     0.18400
N2074       N  0.05744857  0.46351964  0.72000447     0.75900
H2075       H  0.06347195  0.43685582  0.75234647     0.09900
C2076       C  0.08933927  0.41937117  0.81163551     0.03600
C2077       C  0.08696977  0.40427259  0.82533229    -0.05100
C2078       C  0.08460888  0.39146120  0.80352850    -0.23500
C2079       C  0.08503787  0.39394154  0.76723745     0.12800
C2080       C  0.08717705  0.40904102  0.75366958    -0.12700
N2081       N  0.09127927  0.43212088  0.83481173     0.64500
H2082       H  0.08659435  0.40267231  0.85313545     0.12400
N2083       N  0.08186361  0.38159243  0.74370437     0.61100
H2084       H  0.08669133  0.41088712  0.72582309     0.08500
O2085       O  0.04936405  0.47133511  0.74115687    -0.40300
O2086       O  0.05065380  0.45696164  0.69508717    -0.39500
O2087       O  0.12496679  0.43279306  0.74131251    -0.39500
O2088       O  0.12387483  0.44557440  0.78979060    -0.37200
O2089       O  0.09316573  0.37429495  0.73001308    -0.38100
O2090       O  0.06847744  0.38096361  0.72987127    -0.34300
O2091       O  0.07932133  0.43916820  0.84632025    -0.35700
O2092       O  0.10433583  0.43385223  0.84967156    -0.40000
C2093       C  0.10055309  0.57099944  0.80861468    -0.13600
C2094       C  0.09489442  0.57082230  0.77432597     0.16700
C2095       C  0.08829449  0.58476426  0.75998223     0.03000
C2096       C  0.08730461  0.59832521  0.78009097    -0.12200
C2097       C  0.09234077  0.59826477  0.81478425    -0.03200
C2098       C  0.09923133  0.58447902  0.82891784     0.02300
C2099       C  0.09424341  0.55552288  0.75609268     0.09100
N2100       N  0.08133640  0.58508236  0.72620865     0.65500
H2101       H  0.08180163  0.60878607  0.76902868     0.18400
N2102       N  0.10521637  0.58402011  0.86357485     0.75900
H2103       H  0.10566879  0.56042509  0.82003507     0.09900
C2104       C  0.10144178  0.55274241  0.72383075     0.03600
C2105       C  0.09962380  0.53824222  0.70748509    -0.05100
C2106       C  0.09070716  0.52615648  0.72254829    -0.23500
C2107       C  0.08415364  0.52889407  0.75582908     0.12800
C2108       C  0.08592416  0.54337595  0.77185342    -0.12700
N2109       N  0.11099595  0.56429765  0.70757853     0.64500
H2110       H  0.10521044  0.53681677  0.68274077     0.12400
N2111       N  0.07516618  0.51727187  0.77352288     0.61100
H2112       H  0.08040464  0.54525773  0.79674641     0.08500
O2113       O  0.11977433  0.58526081  0.86851672    -0.40300
O2114       O  0.09681838  0.57861399  0.88762162    -0.39500
O2115       O  0.06768291  0.57986634  0.72238537    -0.39500
O2116       O  0.08683199  0.59406325  0.70319511    -0.37200
O2117       O  0.08171341  0.50898878  0.79690826    -0.38100
O2118       O  0.06040224  0.51845467  0.77311856    -0.34300
O2119       O  0.12477917  0.56616775  0.71861408    -0.35700
O2120       O  0.10736319  0.56934124  0.67766211    -0.40000
C2121       C  0.09634106  0.48554419  0.47875110    -0.13600
C2122       C  0.08348806  0.48997539  0.49932933     0.16700
C2123       C  0.06948988  0.49507978  0.48254196     0.03000
C2124       C  0.06875188  0.49608228  0.44629455    -0.12200
C2125       C  0.08166918  0.49207351  0.42583165    -0.03200
C2126       C  0.09557075  0.48666717  0.44231805     0.02300
C2127       C  0.08537725  0.49114635  0.53780219     0.09100
N2128       N  0.05598835  0.49971720  0.50192400     0.65500
H2129       H  0.05820811  0.50079161  0.43415038     0.18400
N2130       N  0.10915950  0.48279078  0.42252763     0.75900
H2131       H  0.10728314  0.48193151  0.49101219     0.09900
C2132       C  0.09010661  0.47832909  0.55922369     0.03600
C2133       C  0.09121949  0.48013685  0.59539791    -0.05100
C2134       C  0.08782003  0.49458901  0.61083453    -0.23500
C2135       C  0.08331291  0.50743831  0.58925225     0.12800
C2136       C  0.08249855  0.50567414  0.55329587    -0.12700
N2137       N  0.09334509  0.46329342  0.54487346     0.64500
H2138       H  0.09450135  0.47012798  0.61156319     0.12400
N2139       N  0.07812965  0.52199578  0.60349644     0.61100
H2140       H  0.07922661  0.51575070  0.53736378     0.08500
O2141       O  0.11239963  0.46859583  0.41671935    -0.40300
O2142       O  0.11950039  0.49299535  0.41770348    -0.39500
O2143       O  0.05253297  0.51409706  0.50421508    -0.39500
O2144       O  0.04568686  0.48970422  0.50876909    -0.37200
O2145       O  0.06382000  0.52391696  0.61072436    -0.38100
O2146       O  0.08684296  0.53378248  0.60143678    -0.34300
O2147       O  0.10734445  0.45835415  0.54345810    -0.35700
O2148       O  0.08231347  0.45376489  0.54123866    -0.40000
C2149       C  0.06520656  0.44517630  0.28886106    -0.13600
C2150       C  0.07932566  0.43943860  0.27516909     0.16700
C2151       C  0.09307372  0.44812728  0.28031857     0.03000
C2152       C  0.09243871  0.46223447  0.29871925    -0.12200
C2153       C  0.07828080  0.46799803  0.31254836    -0.03200
C2154       C  0.06453438  0.45917382  0.30749517     0.02300
C2155       C  0.07915672  0.42485277  0.25413847     0.09100
N2156       N  0.10784019  0.44263913  0.26761163     0.65500
H2157       H  0.10314425  0.46869900  0.30236854     0.18400
N2158       N  0.04952023  0.46466181  0.31868752     0.75900
H2159       H  0.05443692  0.43896248  0.28416600     0.09900
C2160       C  0.07325693  0.41068376  0.26774006     0.03600
C2161       C  0.07225362  0.39746052  0.24672022    -0.05100
C2162       C  0.07691707  0.39795870  0.21188809    -0.23500
C2163       C  0.08284877  0.41207094  0.19818187     0.12800
C2164       C  0.08390920  0.42534220  0.21927959    -0.12700
N2165       N  0.06836234  0.40946716  0.30302752     0.64500
H2166       H  0.06751101  0.38677153  0.25759824     0.12400
N2167       N  0.08834535  0.41296125  0.16329362     0.61100
H2168       H  0.08827154  0.43615075  0.20821505     0.08500
O2169       O  0.04383257  0.45890890  0.34608083    -0.40300
O2170       O  0.04030329  0.47070671  0.29644983    -0.39500
O2171       O  0.11396102  0.44943659  0.24190099    -0.39500
O2172       O  0.11608386  0.43337977  0.28610512    -0.37200
O2173       O  0.08053810  0.42065134  0.14082695    -0.38100
O2174       O  0.10223346  0.40872361  0.15665115    -0.34300
O2175       O  0.05391466  0.40954684  0.30993531    -0.35700
O2176       O  0.07808152  0.40482803  0.32581966    -0.40000
C2177       C  0.08714339  0.55627340  0.31958421    -0.13600
C2178       C  0.09350157  0.55663656  0.28623851     0.16700
C2179       C  0.09844258  0.54248591  0.27125080     0.03000
C2180       C  0.09607489  0.52816921  0.28867608    -0.12200
C2181       C  0.08842786  0.52749342  0.32105386    -0.03200
C2182       C  0.08473147  0.54201640  0.33720835     0.02300
C2183       C  0.09360713  0.57169057  0.26635231     0.09100
N2184       N  0.10487252  0.54236189  0.23714216     0.65500
H2185       H  0.09962297  0.51770417  0.27536721     0.18400
N2186       N  0.07765513  0.54255022  0.37075350     0.75900
H2187       H  0.08349071  0.56714015  0.33157208     0.09900
C2188       C  0.07977586  0.57750094  0.25051794     0.03600
C2189       C  0.07984932  0.59170995  0.23202816    -0.05100
C2190       C  0.09354536  0.60056790  0.22888672    -0.23500
C2191       C  0.10742948  0.59483636  0.24519375     0.12800
C2192       C  0.10736180  0.58044428  0.26357511    -0.12700
N2193       N  0.06549983  0.56902941  0.25297376     0.64500
H2194       H  0.06895091  0.59593029  0.22052725     0.12400
N2195       N  0.12176727  0.60318857  0.24254201     0.61100
H2196       H  0.11807278  0.57609208  0.27573683     0.08500
O2197       O  0.06323292  0.54586476  0.37313543    -0.40300
O2198       O  0.08631071  0.54399852  0.39709300    -0.39500
O2199       O  0.11934865  0.53975332  0.23320831    -0.39500
O2200       O  0.09579200  0.54175586  0.21129946    -0.37200
O2201       O  0.13097437  0.60026146  0.21787857    -0.38100
O2202       O  0.12677634  0.61050171  0.26846094    -0.34300
O2203       O  0.05512276  0.57332942  0.27417666    -0.35700
O2204       O  0.06213552  0.55925768  0.22994421    -0.40000
C2205       C  0.98774373  0.48539571  0.69607488    -0.13600
C2206       C  0.99642721  0.48876441  0.66616540     0.16700
C2207       C  0.98836118  0.49123787  0.63432603     0.03000
C2208       C  0.97195653  0.49158690  0.63378654    -0.12200
C2209       C  0.96354279  0.49036257  0.66465177    -0.03200
C2210       C  0.97149583  0.48708328  0.69607756     0.02300
C2211       C  0.01361229  0.49087157  0.66971768     0.09100
N2212       N  0.99649698  0.49474271  0.60294297     0.65500
H2213       H  0.96582849  0.49423678  0.60967627     0.18400
N2214       N  0.96343701  0.48679930  0.72857386     0.75900
H2215       H  0.99365761  0.48257353  0.72029104     0.09900
C2216       C  0.01987520  0.49972021  0.69710105     0.03600
C2217       C  0.03599605  0.50117263  0.70048924    -0.05100
C2218       C  0.04636134  0.49496668  0.67591544    -0.23500
C2219       C  0.04012725  0.48635063  0.64806299     0.12800
C2220       C  0.02394174  0.48396971  0.64597996    -0.12700
N2221       N  0.01008709  0.50790840  0.72108353     0.64500
H2222       H  0.04033514  0.50743104  0.72268184     0.12400
N2223       N  0.04971823  0.48069548  0.62052631     0.61100
H2224       H  0.01945639  0.47684755  0.62527891     0.08500
O2225       O  0.96247363  0.49923342  0.74583148    -0.40300
O2226       O  0.96128507  0.47386676  0.74387111    -0.39500
O2227       O  0.99727925  0.48455680  0.57956724    -0.39500
O2228       O  0.99953589  0.50880658  0.59549212    -0.37200
O2229       O  0.05196234  0.46611698  0.61770765    -0.38100
O2230       O  0.05166979  0.48940116  0.59428188    -0.34300
O2231       O  0.00988058  0.50346167  0.75241256    -0.35700
O2232       O  0.00510963  0.52149717  0.71323066    -0.40000
C2233       C  0.92687250  0.43759732  0.70329285    -0.13600
C2234       C  0.91286769  0.43515964  0.72114595     0.16700
C2235       C  0.90188257  0.44760713  0.72307370     0.03000
C2236       C  0.90523381  0.46220301  0.70790548    -0.12200
C2237       C  0.91956954  0.46494619  0.69099009    -0.03200
C2238       C  0.93033057  0.45211545  0.68808196     0.02300
C2239       C  0.91086179  0.41997421  0.73995823     0.09100
N2240       N  0.88722828  0.44563876  0.74022864     0.65500
H2241       H  0.89647120  0.47147019  0.70958493     0.18400
N2242       N  0.94512963  0.45340308  0.67116029     0.75900
H2243       H  0.93557188  0.42823141  0.70215251     0.09900
C2244       C  0.91230003  0.40554439  0.72271906     0.03600
C2245       C  0.91310233  0.39148016  0.74181639    -0.05100
C2246       C  0.91244861  0.39135484  0.77820206    -0.23500
C2247       C  0.91045540  0.40576476  0.79542526     0.12800
C2248       C  0.90972617  0.41986890  0.77625307    -0.12700
N2249       N  0.91316567  0.40499320  0.68576504     0.64500
H2250       H  0.91472848  0.38059596  0.72803598     0.12400
N2251       N  0.90885407  0.40632636  0.83224202     0.61100
H2252       H  0.90879996  0.43084540  0.78993894     0.08500
O2253       O  0.94642403  0.44814823  0.64086126    -0.40300
O2254       O  0.95733224  0.45420028  0.68956750    -0.39500
O2255       O  0.88500957  0.45201335  0.76916003    -0.39500
O2256       O  0.87560056  0.44091906  0.72317869    -0.37200
O2257       O  0.91986758  0.41171924  0.85025198    -0.38100
O2258       O  0.89536832  0.40532745  0.84530758    -0.34300
O2259       O  0.92599674  0.40141546  0.67152644    -0.35700
O2260       O  0.90066399  0.40479140  0.66818391    -0.40000
C2261       C  0.92622681  0.55340875  0.70853319    -0.13600
C2262       C  0.91954265  0.55299867  0.74152233     0.16700
C2263       C  0.91229989  0.53921344  0.75301822     0.03000
C2264       C  0.91259270  0.52579516  0.73233136    -0.12200
C2265       C  0.92023060  0.52569513  0.69992707    -0.03200
C2266       C  0.92652934  0.54010347  0.68762104     0.02300
C2267       C  0.92071566  0.56699169  0.76378011     0.09100
N2268       N  0.90540040  0.53836960  0.78662228     0.65500
H2269       H  0.90741373  0.51539456  0.74306580     0.18400
N2270       N  0.93402271  0.54129887  0.65458792     0.75900
H2271       H  0.93160726  0.56408214  0.69922480     0.09900
C2272       C  0.93497387  0.57069088  0.78000364     0.03600
C2273       C  0.93630675  0.58466773  0.79827202    -0.05100
C2274       C  0.92358980  0.59524354  0.80102359    -0.23500
C2275       C  0.90915132  0.59134559  0.78528072     0.12800
C2276       C  0.90786029  0.57729823  0.76687711    -0.12700
N2277       N  0.94825035  0.56033490  0.77809931     0.64500
H2278       H  0.94756161  0.58738901  0.80962282     0.12400
N2279       N  0.89560363  0.60127682  0.78823913     0.61100
H2280       H  0.89683035  0.57453175  0.75450050     0.08500
O2281       O  0.94880045  0.54143380  0.65322572    -0.40300
O2282       O  0.92620476  0.54643640  0.62890517    -0.39500
O2283       O  0.89069764  0.53939061  0.78955023    -0.39500
O2284       O  0.91358009  0.53363432  0.81211345    -0.37200
O2285       O  0.88568844  0.59829814  0.81148346    -0.38100
O2286       O  0.89154124  0.60986601  0.76278649    -0.34300
O2287       O  0.95956309  0.56381768  0.75865433    -0.35700
O2288       O  0.95004357  0.54964608  0.80073316    -0.40000
C2289       C  0.98350682  0.47835355  0.36224042    -0.13600
C2290       C  0.98963453  0.49340656  0.35809664     0.16700
C2291       C  0.97931818  0.50602631  0.34995697     0.03000
C2292       C  0.96342783  0.50326943  0.34409061    -0.12200
C2293       C  0.95740021  0.48809576  0.34642119    -0.03200
C2294       C  0.96750418  0.47565551  0.35731709     0.02300
C2295       C  0.00689056  0.49542850  0.35793646     0.09100
N2296       N  0.98484045  0.52171964  0.34708226     0.65500
H2297       H  0.95592005  0.51310154  0.33681841     0.18400
N2298       N  0.96167932  0.46036959  0.36481350     0.75900
H2299       H  0.99122397  0.46851992  0.36848129     0.09900
C2300       C  0.01672373  0.48984088  0.38505559     0.03600
C2301       C  0.03301154  0.49129432  0.38234043    -0.05100
C2302       C  0.03980585  0.49851539  0.35328689    -0.23500
C2303       C  0.02990633  0.50381638  0.32581836     0.12800
C2304       C  0.01371151  0.50208486  0.32836909    -0.12700
N2305       N  0.01039328  0.48297284  0.41582752     0.64500
H2306       H  0.04031228  0.48685510  0.40334434     0.12400
N2307       N  0.03602040  0.51019793  0.29425897     0.61100
H2308       H  0.00641611  0.50561504  0.30648703     0.08500
O2309       O  0.95558745  0.45768686  0.39399138    -0.40300
O2310       O  0.96587311  0.44898655  0.34628537    -0.39500
O2311       O  0.98558998  0.52823966  0.31759987    -0.39500
O2312       O  0.98549193  0.53001954  0.37385486    -0.37200
O2313       O  0.03939946  0.50111795  0.26976559    -0.38100
O2314       O  0.03412468  0.52463392  0.28776054    -0.34300
O2315       O  0.01167261  0.46835681  0.42067673    -0.35700
O2316       O  0.00721658  0.49163423  0.44117940    -0.40000
C2317       C  0.91296523  0.50335172  0.45653471    -0.13600
C2318       C  0.91930020  0.49076242  0.47614218     0.16700
C2319       C  0.92330683  0.47675242  0.45900729     0.03000
C2320       C  0.92124238  0.47569225  0.42307564    -0.12200
C2321       C  0.91532591  0.48841296  0.40335814    -0.03200
C2322       C  0.91104382  0.50231870  0.42046804     0.02300
C2323       C  0.92103911  0.49226679  0.51446449     0.09100
N2324       N  0.93025794  0.46375524  0.47739043     0.65500
H2325       H  0.92490768  0.46502721  0.41029299     0.18400
N2326       N  0.90406551  0.51523312  0.40189630     0.75900
H2327       H  0.90931750  0.51401110  0.46935713     0.09900
C2328       C  0.92926401  0.50480597  0.52925829     0.03600
C2329       C  0.92986986  0.50638585  0.56536759    -0.05100
C2330       C  0.92268906  0.49547981  0.58735999    -0.23500
C2331       C  0.91463857  0.48284983  0.57278511     0.12800
C2332       C  0.91370274  0.48145418  0.53662954    -0.12700
N2333       N  0.93757321  0.51569365  0.50803647     0.64500
H2334       H  0.93636857  0.51595883  0.57636401     0.12400
N2335       N  0.90679031  0.47173688  0.59430511     0.61100
H2336       H  0.90698280  0.47200727  0.52582760     0.08500
O2337       O  0.91204988  0.52729157  0.39597048    -0.40300
O2338       O  0.88931687  0.51616758  0.39970518    -0.39500
O2339       O  0.92222221  0.45172432  0.48324942    -0.39500
O2340       O  0.94498398  0.46286822  0.48032912    -0.37200
O2341       O  0.89227642  0.47339979  0.59958125    -0.38100
O2342       O  0.91344340  0.45880363  0.60163531    -0.34300
O2343       O  0.93290199  0.52977789  0.50607070    -0.35700
O2344       O  0.95114148  0.51211301  0.49758402    -0.40000
C2345       C  0.91784379  0.44203041  0.23782465    -0.13600
C2346       C  0.90810323  0.43034807  0.25098090     0.16700
C2347       C  0.90102400  0.43261044  0.28354033     0.03000
C2348       C  0.90382842  0.44629514  0.30225023    -0.12200
C2349       C  0.91391682  0.45797685  0.28959605    -0.03200
C2350       C  0.92074865  0.45568581  0.25638338     0.02300
C2351       C  0.90685042  0.41532129  0.23191754     0.09100
N2352       N  0.89099147  0.42104821  0.29820950     0.65500
H2353       H  0.89809968  0.44736851  0.32693074     0.18400
N2354       N  0.93104749  0.46692208  0.24121702     0.75900
H2355       H  0.92377260  0.44031343  0.21336756     0.09900
C2356       C  0.90256759  0.41489274  0.19648349     0.03600
C2357       C  0.90338967  0.40072990  0.17848075    -0.05100
C2358       C  0.90842749  0.38684286  0.19501922    -0.23500
C2359       C  0.91265273  0.38722175  0.23049706     0.12800
C2360       C  0.91177927  0.40135369  0.24848928    -0.12700
N2361       N  0.89750497  0.42875723  0.17826226     0.64500
H2362       H  0.90021199  0.40062291  0.15131692     0.12400
N2363       N  0.91931824  0.37374301  0.24775624     0.61100
H2364       H  0.91585631  0.40155912  0.27510454     0.08500
O2365       O  0.92577754  0.47614503  0.21798001    -0.40300
O2366       O  0.94566812  0.46460858  0.24341018    -0.39500
O2367       O  0.89601224  0.41242391  0.32278686    -0.39500
O2368       O  0.87644201  0.42194147  0.29233884    -0.37200
O2369       O  0.91133742  0.36638826  0.26989624    -0.38100
O2370       O  0.93389394  0.37113271  0.24603056    -0.34300
O2371       O  0.90662425  0.43512572  0.15681032    -0.35700
O2372       O  0.88308866  0.43227210  0.17731589    -0.40000
C2373       C  0.90774276  0.53960581  0.26566079    -0.13600
C2374       C  0.92228139  0.54480350  0.25343454     0.16700
C2375       C  0.93576666  0.53534718  0.25910025     0.03000
C2376       C  0.93459887  0.52112243  0.27735732    -0.12200
C2377       C  0.92018395  0.51615987  0.29045616    -0.03200
C2378       C  0.90660608  0.52529744  0.28379662     0.02300
C2379       C  0.92340803  0.56067656  0.23761889     0.09100
N2380       N  0.95078864  0.54020854  0.24722475     0.65500
H2381       H  0.94499014  0.51383298  0.28097937     0.18400
N2382       N  0.89166545  0.52025718  0.29574478     0.75900
H2383       H  0.89730218  0.54678937  0.26149505     0.09900
C2384       C  0.92409182  0.56312780  0.20149803     0.03600
C2385       C  0.92538023  0.57839181  0.18796342    -0.05100
C2386       C  0.92628161  0.59142136  0.20982699    -0.23500
C2387       C  0.92565840  0.58884866  0.24612447     0.12800
C2388       C  0.92405470  0.57360318  0.25951829    -0.12700
N2389       N  0.92353350  0.55026580  0.17821634     0.64500
H2390       H  0.92567467  0.58002432  0.16008303     0.12400
N2391       N  0.92746757  0.60137207  0.26994591     0.61100
H2392       H  0.92375116  0.57178453  0.28736818     0.08500
O2393       O  0.88766793  0.52264066  0.32667475    -0.40300
O2394       O  0.88312918  0.51210270  0.27646791    -0.39500
O2395       O  0.95948431  0.54782410  0.26724172    -0.39500
O2396       O  0.95668160  0.53387349  0.22084298    -0.37200
O2397       O  0.94106991  0.60572453  0.27791360    -0.38100
O2398       O  0.91609630  0.60520565  0.28900339    -0.34300
O2399       O  0.91060312  0.54669235  0.16467234    -0.35700
O2400       O  0.93609754  0.54517237  0.16505825    -0.40000
C2401       C  0.45247158  0.05887136  0.71637761    -0.13600
C2402       C  0.44805291  0.07305284  0.73167563     0.16700
C2403       C  0.45873347  0.08549624  0.73126963     0.03000
C2404       C  0.47341034  0.08362834  0.71529531    -0.12200
C2405       C  0.47796331  0.06934942  0.70014310    -0.03200
C2406       C  0.46724824  0.05681806  0.70113650     0.02300
C2407       C  0.43262657  0.07408754  0.74959810     0.09100
N2408       N  0.45484489  0.10012549  0.74685768     0.65500
H2409       H  0.48132120  0.09343800  0.71489420     0.18400
N2410       N  0.47159573  0.04145403  0.69011210     0.75900
H2411       H  0.44460182  0.04902768  0.71759688     0.09900
C2412       C  0.41846627  0.07217835  0.73126118     0.03600
C2413       C  0.40423624  0.07137605  0.74914201    -0.05100
C2414       C  0.40367322  0.07230810  0.78546704    -0.23500
C2415       C  0.41784105  0.07439376  0.80387826     0.12800
C2416       C  0.43211844  0.07532665  0.78585649    -0.12700
N2417       N  0.41836551  0.07085559  0.69438441     0.64500
H2418       H  0.39357332  0.06953819  0.73446534     0.12400
N2419       N  0.41795863  0.07585398  0.84072935     0.61100
H2420       H  0.44292183  0.07660786  0.80035782     0.08500
O2421       O  0.47691963  0.03180394  0.71238351    -0.40300
O2422       O  0.46577018  0.03629786  0.66246870    -0.39500
O2423       O  0.46057275  0.10331390  0.77609700    -0.39500
O2424       O  0.44868439  0.11094574  0.72856939    -0.37200
O2425       O  0.41670813  0.08929738  0.85374479    -0.38100
O2426       O  0.42307218  0.06459723  0.85928893    -0.34300
O2427       O  0.41648236  0.05761484  0.68093353    -0.35700
O2428       O  0.41687440  0.08306057  0.67578796    -0.40000
C2429       C  0.56677980  0.07014028  0.70582853    -0.13600
C2430       C  0.56672523  0.07749441  0.73801162     0.16700
C2431       C  0.55276140  0.08478987  0.74930212     0.03000
C2432       C  0.53882540  0.08316597  0.73024684    -0.12200
C2433       C  0.53842430  0.07431660  0.69963187    -0.03200
C2434       C  0.55299684  0.06868913  0.68639281     0.02300
C2435       C  0.58129272  0.07705110  0.75943692     0.09100
N2436       N  0.55233102  0.09327009  0.78096237     0.65500
H2437       H  0.52836510  0.08854317  0.74055853     0.18400
N2438       N  0.55399323  0.06081766  0.65390752     0.75900
H2439       H  0.57762037  0.06520722  0.69590241     0.09900
C2440       C  0.58847361  0.06261211  0.76912958     0.03600
C2441       C  0.60248536  0.06239819  0.78806975    -0.05100
C2442       C  0.60970700  0.07634338  0.79762733    -0.23500
C2443       C  0.60258066  0.09078994  0.78815878     0.12800
C2444       C  0.58846381  0.09104865  0.76920467    -0.12700
N2445       N  0.58156398  0.04801963  0.76037337     0.64500
H2446       H  0.60784356  0.05119434  0.79504640     0.12400
N2447       N  0.60922754  0.10524243  0.79862875     0.61100
H2448       H  0.58318626  0.10222244  0.76175417     0.08500
O2449       O  0.55675930  0.06875459  0.62686467    -0.40300
O2450       O  0.55666883  0.04623219  0.65373906    -0.39500
O2451       O  0.55179456  0.10805243  0.77993045    -0.39500
O2452       O  0.54923873  0.08616311  0.80891972    -0.37200
O2453       O  0.61733757  0.11300724  0.77743398    -0.38100
O2454       O  0.60443753  0.11165233  0.82597786    -0.34300
O2455       O  0.58745143  0.03996651  0.73636808    -0.35700
O2456       O  0.57219397  0.04167546  0.78130185    -0.40000
C2457       C  0.49105160  0.07246939  0.53712668    -0.13600
C2458       C  0.50415325  0.06828642  0.51702612     0.16700
C2459       C  0.51841440  0.06457494  0.53412561     0.03000
C2460       C  0.51936255  0.06514125  0.57033725    -0.12200
C2461       C  0.50626948  0.06918552  0.59047701    -0.03200
C2462       C  0.49193400  0.07274714  0.57352951     0.02300
C2463       C  0.50281128  0.06788455  0.47841032     0.09100
N2464       N  0.53186692  0.05943225  0.51524121     0.65500
H2465       H  0.53035602  0.06190608  0.58288586     0.18400
N2466       N  0.47831007  0.07716261  0.59270784     0.75900
H2467       H  0.48007930  0.07566858  0.52448859     0.09900
C2468       C  0.49138589  0.05873228  0.46188234     0.03600
C2469       C  0.49045880  0.05852877  0.42563461    -0.05100
C2470       C  0.50081158  0.06719840  0.40518295    -0.23500
C2471       C  0.51185543  0.07675807  0.42133279     0.12800
C2472       C  0.51285024  0.07700759  0.45771107    -0.12700
N2473       N  0.48091194  0.04921387  0.48146935     0.64500
H2474       H  0.48179891  0.05125736  0.41330796     0.12400
N2475       N  0.52138168  0.08697859  0.40107936     0.61100
H2476       H  0.52125642  0.08460316  0.46985562     0.08500
O2477       O  0.47529243  0.09150847  0.59719869    -0.40300
O2478       O  0.46764698  0.06729197  0.59752422    -0.39500
O2479       O  0.54291947  0.06881333  0.50995749    -0.39500
O2480       O  0.53427227  0.04494071  0.51133110    -0.37200
O2481       O  0.51541982  0.09933087  0.38797422    -0.38100
O2482       O  0.53492751  0.08257544  0.39206807    -0.34300
O2483       O  0.46681792  0.05361863  0.48483791    -0.35700
O2484       O  0.48468612  0.03515618  0.48829751    -0.40000
C2485       C  0.45655090  0.06614920  0.23516728    -0.13600
C2486       C  0.44309011  0.07258991  0.25035325     0.16700
C2487       C  0.44416586  0.07828901  0.28440011     0.03000
C2488       C  0.45832427  0.07693984  0.30293925    -0.12200
C2489       C  0.47177367  0.06973205  0.28856837    -0.03200
C2490       C  0.47075686  0.06480031  0.25352925     0.02300
C2491       C  0.42779631  0.07202077  0.23151467     0.09100
N2492       N  0.43088739  0.08534913  0.30083787     0.65500
H2493       H  0.45825858  0.08124926  0.32901122     0.18400
N2494       N  0.48388733  0.05780554  0.23636471     0.75900
H2495       H  0.45591647  0.06152026  0.20920197     0.09900
C2496       C  0.42552782  0.07901283  0.19839138     0.03600
C2497       C  0.41094834  0.07799350  0.18158018    -0.05100
C2498       C  0.39869900  0.06959720  0.19654836    -0.23500
C2499       C  0.40111917  0.06209602  0.22884395     0.12800
C2500       C  0.41550442  0.06343087  0.24614841    -0.12700
N2501       N  0.43788819  0.08713161  0.18138156     0.64500
H2502       H  0.40916669  0.08386957  0.15685303     0.12400
N2503       N  0.38943902  0.05216008  0.24313315     0.61100
H2504       H  0.41724228  0.05732909  0.27069567     0.08500
O2505       O  0.48436126  0.04314212  0.23262055    -0.40300
O2506       O  0.49225869  0.06626900  0.21707308    -0.39500
O2507       O  0.42322195  0.07749520  0.32270878    -0.39500
O2508       O  0.42923358  0.10006296  0.29987742    -0.37200
O2509       O  0.38972931  0.03774194  0.23634995    -0.38100
O2510       O  0.37833275  0.05787554  0.26064044    -0.34300
O2511       O  0.44557223  0.08026746  0.15801785    -0.35700
O2512       O  0.43846387  0.10184993  0.18340415    -0.40000
C2513       C  0.55580580  0.06018437  0.27608081    -0.13600
C2514       C  0.56137251  0.07551772  0.27376798     0.16700
C2515       C  0.55171792  0.08795784  0.28546463     0.03000
C2516       C  0.53673611  0.08488337  0.29863061    -0.12200
C2517       C  0.53113650  0.06954805  0.30041441    -0.03200
C2518       C  0.54086039  0.05711293  0.28911229     0.02300
C2519       C  0.57645187  0.07827003  0.25554253     0.09100
N2520       N  0.55700338  0.10375122  0.28442629     0.65500
H2521       H  0.52941611  0.09452121  0.30741174     0.18400
N2522       N  0.53525720  0.04146949  0.28760963     0.75900
H2523       H  0.56279306  0.05057297  0.26602218     0.09900
C2524       C  0.59058620  0.07083797  0.26627225     0.03600
C2525       C  0.60416411  0.07245013  0.24625212    -0.05100
C2526       C  0.60400825  0.08135264  0.21536755    -0.23500
C2527       C  0.58990716  0.08883973  0.20470059     0.12800
C2528       C  0.57630957  0.08715101  0.22470217    -0.12700
N2529       N  0.59132073  0.06154672  0.29733306     0.64500
H2530       H  0.61486198  0.06645597  0.25455419     0.12400
N2531       N  0.58918316  0.09844022  0.17410938     0.61100
H2532       H  0.56546199  0.09263034  0.21575992     0.08500
O2533       O  0.52763181  0.03740099  0.26119518    -0.40300
O2534       O  0.54142389  0.03104583  0.30700112    -0.39500
O2535       O  0.55212725  0.11290456  0.26065921    -0.39500
O2536       O  0.56333363  0.10937204  0.31104172    -0.37200
O2537       O  0.57803518  0.09676565  0.15291553    -0.38100
O2538       O  0.59713580  0.11077635  0.17268746    -0.34300
O2539       O  0.59219997  0.04681191  0.29536267    -0.35700
O2540       O  0.59434467  0.06801756  0.32575639    -0.40000
C2541       C  0.48804993  0.97396373  0.63625621    -0.13600
C2542       C  0.50326681  0.97920262  0.64215141     0.16700
C2543       C  0.51528117  0.96818283  0.65011125     0.03000
C2544       C  0.51174052  0.95232251  0.65379049    -0.12200
C2545       C  0.49634100  0.94708720  0.64976024    -0.03200
C2546       C  0.48444613  0.95810448  0.63983391     0.02300
C2547       C  0.50563570  0.99617515  0.64650002     0.09100
N2548       N  0.53104740  0.97298794  0.65590363     0.65500
H2549       H  0.52103285  0.94423203  0.66166217     0.18400
N2550       N  0.46858695  0.95361792  0.63388107     0.75900
H2551       H  0.47867995  0.98234644  0.63065184     0.09900
C2552       C  0.50183273  0.00735235  0.62040211     0.03600
C2553       C  0.50297498  0.02334576  0.62745900    -0.05100
C2554       C  0.50780053  0.02841213  0.66022349    -0.23500
C2555       C  0.51133330  0.01717791  0.68645201     0.12800
C2556       C  0.51010470  0.00128822  0.67936858    -0.12700
N2557       N  0.49692662  0.00269400  0.58665053     0.64500
H2558       H  0.50037623  0.03181940  0.60698627     0.12400
N2559       N  0.51558285  0.02160780  0.72084112     0.61100
H2560       H  0.51218130  0.99285851  0.70019031     0.08500
O2561       O  0.46454013  0.94951473  0.60388787    -0.40300
O2562       O  0.45813708  0.95788924  0.65497996    -0.39500
O2563       O  0.53597888  0.97439485  0.68657789    -0.39500
O2564       O  0.54082794  0.97187530  0.63159950    -0.37200
O2565       O  0.50499004  0.02332946  0.74323188    -0.38100
O2566       O  0.52957007  0.01954367  0.73089201    -0.34300
O2567       O  0.48267153  0.00421783  0.57817713    -0.35700
O2568       O  0.50706518  0.00092547  0.56325940    -0.40000
C2569       C  0.44755874  0.90877077  0.75249391    -0.13600
C2570       C  0.43495246  0.90091017  0.73779197     0.16700
C2571       C  0.43666398  0.89486039  0.70408204     0.03000
C2572       C  0.45090460  0.89647675  0.68624365    -0.12200
C2573       C  0.46362585  0.90445179  0.70089661    -0.03200
C2574       C  0.46167280  0.91060676  0.73480560     0.02300
C2575       C  0.41984435  0.90051830  0.75714168     0.09100
N2576       N  0.42393713  0.88736141  0.68712597     0.65500
H2577       H  0.45156082  0.89183464  0.66043229     0.18400
N2578       N  0.47369757  0.91932638  0.75151588     0.75900
H2579       H  0.44626654  0.91417257  0.77758512     0.09900
C2580       C  0.41923427  0.89570072  0.79236354     0.03600
C2581       C  0.40532783  0.89752977  0.81112370    -0.05100
C2582       C  0.39185325  0.90414264  0.79568558    -0.23500
C2583       C  0.39235154  0.90888361  0.76051540     0.12800
C2584       C  0.40625268  0.90701577  0.74166449    -0.12700
N2585       N  0.43273053  0.88926527  0.80980134     0.64500
H2586       H  0.40512133  0.89391368  0.83815824     0.12400
N2587       N  0.37933618  0.91688497  0.74442274     0.61100
H2588       H  0.40666359  0.91159906  0.71539945     0.08500
O2589       O  0.47317246  0.93409961  0.74970113    -0.40300
O2590       O  0.48154832  0.91282711  0.77565009    -0.39500
O2591       O  0.41639933  0.89468962  0.66363999    -0.39500
O2592       O  0.42270917  0.87268345  0.68966514    -0.37200
O2593       O  0.37736200  0.93138439  0.74911207    -0.38100
O2594       O  0.37180848  0.91028914  0.72061632    -0.34300
O2595       O  0.43939781  0.89716124  0.83288739    -0.35700
O2596       O  0.43556659  0.87474642  0.80816875    -0.40000
C2597       C  0.55013271  0.90201797  0.71170632    -0.13600
C2598       C  0.54992106  0.90728515  0.74619978     0.16700
C2599       C  0.53555838  0.91287558  0.75980269     0.03000
C2600       C  0.52203472  0.91324735  0.73916760    -0.12200
C2601       C  0.52216205  0.90774759  0.70506236    -0.03200
C2602       C  0.53638671  0.90204568  0.69128930     0.02300
C2603       C  0.56483552  0.90803632  0.76681226     0.09100
N2604       N  0.53432630  0.91775027  0.79499979     0.65500
H2605       H  0.51124058  0.91778306  0.75013235     0.18400
N2606       N  0.53690367  0.89551654  0.65739686     0.75900
H2607       H  0.56102922  0.89794399  0.70042728     0.09900
C2608       C  0.57532337  0.89515920  0.77047040     0.03600
C2609       C  0.58959182  0.89683242  0.78838047    -0.05100
C2610       C  0.59380871  0.91114748  0.80343729    -0.23500
C2611       C  0.58291468  0.92384721  0.80087464     0.12800
C2612       C  0.56888540  0.92221686  0.78220262    -0.12700
N2613       N  0.57156788  0.88020466  0.75671811     0.64500
H2614       H  0.59746177  0.88677754  0.79049714     0.12400
N2615       N  0.58597613  0.93882175  0.81528254     0.61100
H2616       H  0.56121185  0.93236849  0.77907596     0.08500
O2617       O  0.53434557  0.88111151  0.65367411    -0.40300
O2618       O  0.54278245  0.90325350  0.63272566    -0.39500
O2619       O  0.53157626  0.93199095  0.80140209    -0.39500
O2620       O  0.53227002  0.90757257  0.81848039    -0.37200
O2621       O  0.58822646  0.95016974  0.79473252    -0.38100
O2622       O  0.58078277  0.94171532  0.84514114    -0.34300
O2623       O  0.57897407  0.87511931  0.73084703    -0.35700
O2624       O  0.56333790  0.87092561  0.77438256    -0.40000
C2625       C  0.49657266  0.97137229  0.35330309    -0.13600
C2626       C  0.51037675  0.97650962  0.33770235     0.16700
C2627       C  0.52103312  0.96551378  0.32394799     0.03000
C2628       C  0.51742892  0.94956972  0.32505938    -0.12200
C2629       C  0.50319899  0.94451905  0.33911251    -0.03200
C2630       C  0.49284916  0.95553374  0.35395341     0.02300
C2631       C  0.51230831  0.99352346  0.33381577     0.09100
N2632       N  0.53535780  0.97034081  0.30836677     0.65500
H2633       H  0.52549362  0.94118812  0.31367847     0.18400
N2634       N  0.47868745  0.95086589  0.37044577     0.75900
H2635       H  0.48836903  0.97980944  0.36407974     0.09900
C2636       C  0.50765084  0.00112739  0.30286225     0.03600
C2637       C  0.50494586  0.01725374  0.30253492    -0.05100
C2638       C  0.50682488  0.02614485  0.33260623    -0.23500
C2639       C  0.51264810  0.01865807  0.36305352     0.12800
C2640       C  0.51521053  0.00239475  0.36340196    -0.12700
N2641       N  0.50414932  0.99247201  0.27240967     0.64500
H2642       H  0.50081958  0.02278089  0.27869218     0.12400
N2643       N  0.51457176  0.02694218  0.39468155     0.61100
H2644       H  0.51850970  0.99652409  0.38748987     0.08500
O2645       O  0.46601727  0.95149188  0.35343202    -0.40300
O2646       O  0.47815089  0.95082896  0.40311879    -0.39500
O2647       O  0.54771727  0.97031975  0.32645612    -0.39500
O2648       O  0.53642060  0.97071413  0.27576420    -0.37200
O2649       O  0.50409464  0.02586722  0.41751836    -0.38100
O2650       O  0.52816355  0.03094508  0.40367575    -0.34300
O2651       O  0.49030306  0.98799520  0.26738791    -0.35700
O2652       O  0.51354891  0.99284963  0.24727115    -0.40000
C2653       C  0.49857821  0.88824236  0.53718032    -0.13600
C2654       C  0.50315845  0.90142755  0.51790051     0.16700
C2655       C  0.50561666  0.91562472  0.53508204     0.03000
C2656       C  0.50316660  0.91652749  0.57084949    -0.12200
C2657       C  0.49818436  0.90347376  0.59028872    -0.03200
C2658       C  0.49610870  0.88911949  0.57309843     0.02300
C2659       C  0.50238278  0.90100574  0.47957026     0.09100
N2660       N  0.50966368  0.92948783  0.51620218     0.65500
H2661       H  0.50453960  0.92776714  0.58312926     0.18400
N2662       N  0.49155020  0.87532691  0.59156003     0.75900
H2663       H  0.49643021  0.87732547  0.52405708     0.09900
C2664       C  0.51564190  0.89846662  0.45863794     0.03600
C2665       C  0.51409652  0.89896452  0.42234366    -0.05100
C2666       C  0.49946705  0.90178873  0.40637383    -0.23500
C2667       C  0.48613289  0.90398339  0.42778346     0.12800
C2668       C  0.48777660  0.90360752  0.46384457    -0.12700
N2669       N  0.53068214  0.89527862  0.47377590     0.64500
H2670       H  0.52436907  0.89704413  0.40658965     0.12400
N2671       N  0.47087659  0.90723122  0.41370157     0.61100
H2672       H  0.47753119  0.90562273  0.47981512     0.08500
O2673       O  0.50201966  0.86624156  0.60392500    -0.40300
O2674       O  0.47777125  0.87038901  0.58803571    -0.39500
O2675       O  0.49909742  0.93943942  0.50837568    -0.39500
O2676       O  0.52386534  0.93328763  0.51406661    -0.37200
O2677       O  0.46098393  0.89639451  0.41306676    -0.38100
O2678       O  0.46606541  0.92124616  0.41143889    -0.34300
O2679       O  0.53495588  0.88124732  0.47931792    -0.35700
O2680       O  0.54077726  0.90592589  0.47421372    -0.40000
C2681       C  0.41773804  0.88918869  0.22595983    -0.13600
C2682       C  0.42536429  0.90276430  0.23679011     0.16700
C2683       C  0.41808827  0.91749730  0.23052090     0.03000
C2684       C  0.40340286  0.91841979  0.21421528    -0.12200
C2685       C  0.39554487  0.90487311  0.20444329    -0.03200
C2686       C  0.40294723  0.89014247  0.20980083     0.02300
C2687       C  0.44098131  0.90153305  0.25407169     0.09100
N2688       N  0.42512943  0.93159767  0.24209225     0.65500
H2689       H  0.39791892  0.92979888  0.21007463     0.18400
N2690       N  0.39601228  0.87617678  0.19723995     0.75900
H2691       H  0.42338377  0.87782858  0.22966092     0.09900
C2692       C  0.44310297  0.89339763  0.28573255     0.03600
C2693       C  0.45758842  0.89373525  0.30300202    -0.05100
C2694       C  0.47028861  0.90231858  0.28965072    -0.23500
C2695       C  0.46835580  0.90942681  0.25626182     0.12800
C2696       C  0.45383860  0.90900240  0.23912926    -0.12700
N2697       N  0.43031148  0.88565041  0.30203949     0.64500
H2698       H  0.45826171  0.88775467  0.32768884     0.12400
N2699       N  0.48078736  0.91776693  0.23985812     0.61100
H2700       H  0.45250332  0.91488486  0.21420227     0.08500
O2701       O  0.38973184  0.86678262  0.21831737    -0.40300
O2702       O  0.39916895  0.87167944  0.16699647    -0.39500
O2703       O  0.43157083  0.94059769  0.22041262    -0.39500
O2704       O  0.42217328  0.93649399  0.27211521    -0.37200
O2705       O  0.48935359  0.91071139  0.21832145    -0.38100
O2706       O  0.48033068  0.93255498  0.23925754    -0.34300
O2707       O  0.42999312  0.87087458  0.30259349    -0.35700
O2708       O  0.42132415  0.89328631  0.32172034    -0.40000
C2709       C  0.57431999  0.90878942  0.20709027    -0.13600
C2710       C  0.57274113  0.91436856  0.24107538     0.16700
C2711       C  0.58582436  0.92132971  0.25700515     0.03000
C2712       C  0.60002177  0.92251559  0.23904607    -0.12200
C2713       C  0.60141025  0.91720846  0.20497688    -0.03200
C2714       C  0.58841414  0.91035075  0.18887196     0.02300
C2715       C  0.55757894  0.91236085  0.25975606     0.09100
N2716       N  0.58470862  0.92785401  0.29083526     0.65500
H2717       H  0.60992199  0.92799002  0.25146448     0.18400
N2718       N  0.58954367  0.90436779  0.15453862     0.75900
H2719       H  0.56463851  0.90294015  0.19476831     0.09900
C2720       C  0.54317176  0.91727454  0.24474203     0.03600
C2721       C  0.52911015  0.91469048  0.26231776    -0.05100
C2722       C  0.52890791  0.90729460  0.29505541    -0.23500
C2723       C  0.54327656  0.90246775  0.31027367     0.12800
C2724       C  0.55739873  0.90488388  0.29246547    -0.12700
N2725       N  0.54261906  0.92540386  0.21213643     0.64500
H2726       H  0.51824990  0.91892137  0.25060746     0.12400
N2727       N  0.54375491  0.89463009  0.34317815     0.61100
H2728       H  0.56826740  0.90062622  0.30404800     0.08500
O2729       O  0.58309372  0.91177873  0.12967030    -0.40300
O2730       O  0.59445365  0.89052243  0.15009141    -0.39500
O2731       O  0.59189945  0.92128077  0.31585154    -0.39500
O2732       O  0.57947875  0.94165956  0.29413516    -0.37200
O2733       O  0.54332772  0.87986035  0.34428628    -0.38100
O2734       O  0.54876002  0.90186471  0.36920063    -0.34300
O2735       O  0.53749693  0.91850925  0.18575250    -0.35700
O2736       O  0.54383872  0.94011695  0.21138510    -0.40000
loop_ 
_geom_bond_atom_site_label_1 
_geom_bond_atom_site_label_2 
_geom_bond_distance 
_geom_bond_site_symmetry_2 
_ccdc_geom_bond_type 
C1            C2   1.544       .  S
C1            C7   1.535       .  S
C1            C5   1.540       .  S
C1         C2694   1.542       .  S
C2            H9   1.077       .  S
C2            C3   1.368       .  D
C3            C4   1.546       .  S
C3         C2666   1.496       .  S
C4            C8   1.545       .  S
C4            C6   1.529       .  S
C4           H10   1.110       .  S
C5           H11   1.085       .  S
C5            C6   1.360       .  D
C6         C2629   1.473       .  S
C7           H12   1.085       .  S
C7            C8   1.370       .  D
C8         C2722   1.492       .  S
C13          C14   1.532       .  S
C13          C19   1.554       .  S
C13          C17   1.533       .  S
C13        C2573   1.539       .  S
C14          H21   1.085       .  S
C14          C15   1.363       .  D
C15          C16   1.541       .  S
C15        C2601   1.491       .  S
C16          C20   1.541       .  S
C16          C18   1.541       .  S
C16          H22   1.109       .  S
C17          H23   1.082       .  S
C17          C18   1.360       .  D
C18        C2545   1.489       .  S
C19          H24   1.080       .  S
C19          C20   1.377       .  D
C20        C2657   1.495       .  S
C25          C26   1.542       .  S
C25          C31   1.547       .  S
C25          C29   1.536       .  S
C25        C2489   1.544       .  S
C26          H33   1.085       .  S
C26          C27   1.367       .  D
C27          C28   1.537       .  S
C27        C2517   1.485       .  S
C28          C32   1.541       .  S
C28          C30   1.533       .  S
C28          H34   1.108       .  S
C29          H35   1.086       .  S
C29          C30   1.366       .  D
C30        C2638   1.485       .  S
C31          H36   1.081       .  S
C31          C32   1.365       .  D
C32        C2470   1.481       .  S
C37          C38   1.551       .  S
C37          C43   1.535       .  S
C37          C41   1.533       .  S
C37        C2433   1.540       .  S
C38          H45   1.081       .  S
C38          C39   1.374       .  D
C39          C40   1.545       .  S
C39        C2405   1.502       .  S
C40          C44   1.541       .  S
C40          C42   1.535       .  S
C40          H46   1.105       .  S
C41          H47   1.083       .  S
C41          C42   1.358       .  D
C42        C2554   1.478       .  S
C43          H48   1.085       .  S
C43          C44   1.368       .  D
C44        C2461   1.492       .  S
C49          C50   1.533       .  S
C49          C55   1.552       .  S
C49          C53   1.540       .  S
C49        C2349   1.541       .  S
C50          H57   1.085       .  S
C50          C51   1.359       .  D
C51          C52   1.541       .  S
C51        C2377   1.480       .  S
C52          C56   1.537       .  S
C52          C54   1.536       .  S
C52          H58   1.109       .  S
C53          H59   1.083       .  S
C53          C54   1.366       .  D
C54        C2293   1.489       .  S
C55          H60   1.081       .  S
C55          C56   1.373       .  D
C56        C2321   1.489       .  S
C61          C62   1.556       .  S
C61          C67   1.539       .  S
C61          C65   1.527       .  S
C61        C2265   1.542       .  S
C62          H69   1.080       .  S
C62          C63   1.381       .  D
C63          C64   1.540       .  S
C63        C2237   1.506       .  S
C64          C68   1.536       .  S
C64          C66   1.531       .  S
C64          H70   1.102       .  S
C65          H71   1.087       .  S
C65          C66   1.353       .  D
C66        C2209   1.465       .  S
C67          H72   1.085       .  S
C67          C68   1.366       .  D
C68        C2330   1.483       .  S
C73          C74   1.554       .  S
C73          C79   1.537       .  S
C73          C77   1.535       .  S
C73        C2181   1.546       .  S
C74          H81   1.081       .  S
C74          C75   1.373       .  D
C75          C76   1.542       .  S
C75        C2153   1.500       .  S
C76          C80   1.548       .  S
C76          C78   1.539       .  S
C76          H82   1.108       .  S
C77          H83   1.083       .  S
C77          C78   1.361       .  D
C78        C2302   1.489       .  S
C79          H84   1.085       .  S
C79          C80   1.366       .  D
C80        C2125   1.489       .  S
C85          C86   1.546       .  S
C85          C91   1.536       .  S
C85          C89   1.534       .  S
C85        C2106   1.542       .  S
C86          H93   1.080       .  S
C86          C87   1.371       .  D
C87          C88   1.544       .  S
C87        C2134   1.494       .  S
C88          C92   1.544       .  S
C88          C90   1.533       .  S
C88          H94   1.105       .  S
C89          H95   1.086       .  S
C89          C90   1.367       .  D
C90        C2218   1.488       .  S
C91          H96   1.085       .  S
C91          C92   1.365       .  D
C92        C2069   1.493       .  S
C97          C98   1.540       .  S
C97         C103   1.532       .  S
C97         C101   1.544       .  S
C97        C2050   1.543       .  S
C98         H105   1.085       .  S
C98          C99   1.369       .  D
C99         C100   1.533       .  S
C99        C1985   1.491       .  S
C100        C104   1.543       .  S
C100        C102   1.543       .  S
C100        H106   1.101       .  S
C101        H107   1.081       .  S
C101        C102   1.368       .  D
C102       C2358   1.487       .  S
C103        H108   1.086       .  S
C103        C104   1.368       .  D
C104       C2013   1.498       .  S
C109        C110   1.538       .  S
C109        C115   1.549       .  S
C109        C113   1.537       .  S
C109       C1957   1.550       .  S
C110        H117   1.085       .  S
C110        C111   1.371       .  D
C111        C112   1.544       .  S
C111       C2246   1.493       .  S
C112        C116   1.535       .  S
C112        C114   1.536       .  S
C112        H118   1.105       .  S
C113        H119   1.084       .  S
C113        C114   1.365       .  D
C114       C1929   1.484       .  S
C115        H120   1.084       .  S
C115        C116   1.368       .  D
C116       C2022   1.494       .  S
C121        C122   1.536       .  S
C121        C127   1.544       .  S
C121        C125   1.541       .  S
C121       C1910   1.548       .  S
C122        H129   1.086       .  S
C122        C123   1.371       .  D
C123        C124   1.544       .  S
C123       C2162   1.491       .  S
C124        C128   1.548       .  S
C124        C126   1.536       .  S
C124        H130   1.110       .  S
C125        H131   1.084       .  S
C125        C126   1.355       .  D
C126       C1994   1.476       .  S
C127        H132   1.084       .  S
C127        C128   1.375       .  D
C128       C1882   1.499       .  S
C133        C134   1.534       .  S
C133        C139   1.542       .  S
C133        C137   1.551       .  S
C133       C1854   1.544       .  S
C134        H141   1.083       .  S
C134        C135   1.363       .  D
C135        C136   1.536       .  S
C135       C1938   1.483       .  S
C136        C140   1.539       .  S
C136        C138   1.535       .  S
C136        H142   1.111       .  S
C137        H143   1.080       .  S
C137        C138   1.367       .  D
C138       C2078   1.490       .  S
C139        H144   1.085       .  S
C139        C140   1.370       .  D
C140       C1873   1.484       .  S
C145        C146   1.542       .  S
C145        C151   1.547       .  S
C145        C149   1.543       .  S
C145       C1817   1.549       .  S
C146        H153   1.085       .  S
C146        C147   1.371       .  D
C147        C148   1.542       .  S
C147       C2685   1.485       .  S
C148        C152   1.541       .  S
C148        C150   1.529       .  S
C148        H154   1.110       .  S
C149        H155   1.086       .  S
C149        C150   1.361       .  D
C150       C1761   1.479       .  S
C151        H156   1.083       .  S
C151        C152   1.366       .  D
C152       C1789   1.494       .  S
C157        C158   1.544       .  S
C157        C163   1.544       .  S
C157        C161   1.534       .  S
C157       C1742   1.545       .  S
C158        H165   1.106       .  S
C158        C159   1.352       .  D
C159        C160   1.528       .  S
C159       C1705   1.471       .  S
C160        C164   1.543       .  S
C160        C162   1.538       .  S
C160        H166   1.104       .  S
C161        H167   1.086       .  S
C161        C162   1.365       .  D
C162       C2582   1.484       .  S
C163        H168   1.085       .  S
C163        C164   1.380       .  D
C164       C1798   1.505       .  S
C169        C170   1.535       .  S
C169        C175   1.537       .  S
C169        C173   1.548       .  S
C169       C1686   1.543       .  S
C170        H177   1.080       .  S
C170        C171   1.364       .  D
C171        C172   1.547       .  S
C171       C1770   1.497       .  S
C172        C176   1.543       .  S
C172        C174   1.537       .  S
C172        H178   1.110       .  S
C173        H179   1.081       .  S
C173        C174   1.365       .  D
C174       C2498   1.482       .  S
C175        H180   1.085       .  S
C175        C176   1.368       .  D
C176       C1649   1.486       .  S
C181        C182   1.547       .  S
C181        C187   1.539       .  S
C181        C185   1.530       .  S
C181       C1621   1.546       .  S
C182        H189   1.082       .  S
C182        C183   1.377       .  D
C183        C184   1.548       .  S
C183       C2414   1.496       .  S
C184        C188   1.540       .  S
C184        C186   1.539       .  S
C184        H190   1.105       .  S
C185        H191   1.086       .  S
C185        C186   1.365       .  D
C186       C1714   1.490       .  S
C187        H192   1.085       .  S
C187        C188   1.366       .  D
C188       C1658   1.491       .  S
C193        C194   1.537       .  S
C193        C199   1.549       .  S
C193        C197   1.535       .  S
C193       C1593   1.542       .  S
C194        H201   1.085       .  S
C194        C195   1.367       .  D
C195        C196   1.533       .  S
C195       C1565   1.482       .  S
C196        C200   1.537       .  S
C196        C198   1.542       .  S
C196        H202   1.109       .  S
C197        H203   1.083       .  S
C197        C198   1.366       .  D
C198       C1537   1.492       .  S
C199        H204   1.081       .  S
C199        C200   1.366       .  D
C200       C2713   1.481       .  S
C205        C206   1.548       .  S
C205        C211   1.536       .  S
C205        C209   1.536       .  S
C205       C1518   1.542       .  S
C206        H213   1.081       .  S
C206        C207   1.376       .  D
C207        C208   1.550       .  S
C207       C2610   1.508       .  S
C208        C212   1.544       .  S
C208        C210   1.531       .  S
C208        H214   1.103       .  S
C209        H215   1.086       .  S
C209        C210   1.359       .  D
C210       C1481   1.474       .  S
C211        H216   1.083       .  S
C211        C212   1.368       .  D
C212       C1574   1.495       .  S
C217        C218   1.535       .  S
C217        C223   1.546       .  S
C217        C221   1.544       .  S
C217       C1462   1.552       .  S
C218        H225   1.085       .  S
C218        C219   1.370       .  D
C219        C220   1.550       .  S
C219       C2526   1.488       .  S
C220        C224   1.543       .  S
C220        C222   1.532       .  S
C220        H226   1.109       .  S
C221        H227   1.086       .  S
C221        C222   1.367       .  D
C222       C1546   1.484       .  S
C223        H228   1.084       .  S
C223        C224   1.366       .  D
C224       C1425   1.498       .  S
C229        C230   1.544       .  S
C229        C235   1.545       .  S
C229        C233   1.541       .  S
C229       C1397   1.544       .  S
C230        H237   1.083       .  S
C230        C231   1.370       .  D
C231        C232   1.540       .  S
C231       C1490   1.502       .  S
C232        C236   1.540       .  S
C232        C234   1.536       .  S
C232        H238   1.109       .  S
C233        H239   1.084       .  S
C233        C234   1.368       .  D
C234       C2442   1.484       .  S
C235        H240   1.081       .  S
C235        C236   1.362       .  D
C236       C1434   1.485       .  S
In241       O243   2.251       .  S
In241       O244   2.261       .  S
In241       O252   2.264       .  S
In241       O246   2.257       .  S
In241       O248   2.274       .  S
In241       O249   2.235       .  S
In241       O250   2.255       .  S
In241       O253   2.264       .  S
C242        O248   1.261       .  A
C242        O250   1.258       .  A
C242       C1313   1.483       .  S
O243        C251   1.262       .  A
O244        C251   1.262       .  A
C245        O252   1.258       .  A
C245        O246   1.259       .  A
C245       C1369   1.488       .  S
C247        O249   1.260       .  A
C247        O253   1.263       .  A
C247       C1341   1.487       .  S
C251       C2041   1.491       .  S
In254       O256   2.244       .  S
In254       O257   2.233       .  S
In254       O265   2.245       .  S
In254       O259   2.292       .  S
In254       O261   2.257       .  S
In254       O262   2.237       .  S
In254       O263   2.244       .  S
In254       O266   2.275       .  S
C255        O261   1.264       .  A
C255        O263   1.258       .  A
C255       C1266   1.486       .  S
O256        C264   1.262       .  A
O257        C264   1.259       .  A
C258        O265   1.259       .  A
C258        O259   1.261       .  A
C258       C1378   1.491       .  S
C260        O262   1.257       .  A
C260        O266   1.262       .  A
C260       C1453   1.489       .  S
C264       C1294   1.478       .  S
In267       O269   2.278       .  S
In267       O270   2.247       .  S
In267       O278   2.261       .  S
In267       O272   2.267       .  S
In267       O274   2.281       .  S
In267       O275   2.269       .  S
In267       O276   2.245       .  S
In267       O279   2.272       .  S
C268        O274   1.261       .  A
C268        O276   1.259       .  A
C268       C1201   1.492       .  S
O269        C277   1.262       .  A
O270        C277   1.262       .  A
C271        O278   1.261       .  A
C271        O272   1.261       .  A
C271       C1229   1.493       .  S
C273        O275   1.260       .  A
C273        O279   1.261       .  A
C273       C1966   1.497       .  S
C277       C1350   1.490       .  S
In280       O282   2.235       .  S
In280       O283   2.250       .  S
In280       O291   2.272       .  S
In280       O285   2.271       .  S
In280       O287   2.233       .  S
In280       O288   2.229       .  S
In280       O289   2.272       .  S
In280       O292   2.248       .  S
C281        O287   1.258       .  A
C281        O289   1.267       .  A
C281       C1173   1.489       .  S
O282        C290   1.265       .  A
O283        C290   1.263       .  A
C284        O291   1.261       .  A
C284        O285   1.258       .  A
C284       C1238   1.492       .  S
C286        O288   1.261       .  A
C286        O292   1.259       .  A
C286       C1285   1.476       .  S
C290       C1406   1.486       .  S
In293       O295   2.278       .  S
In293       O296   2.228       .  S
In293       O304   2.272       .  S
In293       O298   2.260       .  S
In293       O300   2.285       .  S
In293       O301   2.226       .  S
In293       O302   2.238       .  S
In293       O305   2.272       .  S
C294        O300   1.263       .  A
C294        O302   1.258       .  A
C294       C1089   1.488       .  S
O295        C303   1.262       .  A
O296        C303   1.260       .  A
C297        O304   1.258       .  A
C297        O298   1.258       .  A
C297       C1145   1.491       .  S
C299        O301   1.261       .  A
C299        O305   1.264       .  A
C299       C1117   1.486       .  S
C303       C1061   1.487       .  S
In306       O308   2.245       .  S
In306       O309   2.251       .  S
In306       O317   2.227       .  S
In306       O311   2.279       .  S
In306       O313   2.265       .  S
In306       O314   2.279       .  S
In306       O315   2.252       .  S
In306       O318   2.241       .  S
C307        O313   1.262       .  A
C307        O315   1.256       .  A
C307       C1182   1.484       .  S
O308        C316   1.258       .  A
O309        C316   1.261       .  A
C310        O317   1.258       .  A
C310        O311   1.261       .  A
C310       C1154   1.487       .  S
C312        O314   1.265       .  A
C312        O318   1.262       .  A
C312       C1509   1.495       .  S
C316       C1033   1.482       .  S
In319       O321   2.263       .  S
In319       O322   2.244       .  S
In319       O330   2.255       .  S
In319       O324   2.289       .  S
In319       O326   2.265       .  S
In319       O327   2.252       .  S
In319       O328   2.253       .  S
In319       O331   2.275       .  S
C320        O326   1.263       .  A
C320        O328   1.258       .  A
C320        C977   1.490       .  S
O321        C329   1.260       .  A
O322        C329   1.261       .  A
C323        O330   1.258       .  A
C323        O324   1.261       .  A
C323       C1005   1.493       .  S
C325        O327   1.261       .  A
C325        O331   1.263       .  A
C325        C958   1.495       .  S
C329       C1126   1.484       .  S
In332       O334   2.268       .  S
In332       O335   2.241       .  S
In332       O343   2.258       .  S
In332       O337   2.254       .  S
In332       O339   2.242       .  S
In332       O340   2.268       .  S
In332       O341   2.271       .  S
In332       O344   2.226       .  S
C333        O339   1.260       .  A
C333        O341   1.261       .  A
C333       C1257   1.488       .  S
O334        C342   1.262       .  A
O335        C342   1.256       .  A
C336        O343   1.262       .  A
C336        O337   1.263       .  A
C336       C1014   1.490       .  S
C338        O340   1.260       .  A
C338        O344   1.259       .  A
C338       C1042   1.481       .  S
C342       C1602   1.484       .  S
In345       O347   2.251       .  S
In345       O348   2.254       .  S
In345       O356   2.271       .  S
In345       O350   2.250       .  S
In345       O352   2.243       .  S
In345       O353   2.261       .  S
In345       O354   2.270       .  S
In345       O357   2.222       .  S
C346        O352   1.258       .  A
C346        O354   1.263       .  A
C346       C1210   1.491       .  S
O347        C355   1.264       .  A
O348        C355   1.259       .  A
C349        O356   1.260       .  A
C349        O350   1.261       .  A
C349        C921   1.489       .  S
C351        O353   1.260       .  A
C351        O357   1.258       .  A
C351        C893   1.475       .  S
C355       C1845   1.487       .  S
In358       O360   2.249       .  S
In358       O361   2.246       .  S
In358       O369   2.242       .  S
In358       O363   2.269       .  S
In358       O365   2.279       .  S
In358       O366   2.290       .  S
In358       O367   2.229       .  S
In358       O370   2.234       .  S
C359        O365   1.262       .  A
C359        O367   1.256       .  A
C359        C837   1.483       .  S
O360        C368   1.260       .  A
O361        C368   1.262       .  A
C362        O369   1.260       .  A
C362        O363   1.261       .  A
C362        C930   1.490       .  S
C364        O366   1.265       .  A
C364        O370   1.260       .  A
C364       C1630   1.495       .  S
C368        C874   1.481       .  S
In371       O373   2.246       .  S
In371       O374   2.243       .  S
In371       O382   2.266       .  S
In371       O376   2.271       .  S
In371       O378   2.288       .  S
In371       O379   2.256       .  S
In371       O380   2.218       .  S
In371       O383   2.264       .  S
C372        O378   1.265       .  A
C372        O380   1.258       .  A
C372       C1322   1.489       .  S
O373        C381   1.259       .  A
O374        C381   1.261       .  A
C375        O382   1.260       .  A
C375        O376   1.258       .  A
C375        C809   1.494       .  S
C377        O379   1.260       .  A
C377        O383   1.265       .  A
C377       C1901   1.494       .  S
C381        C902   1.482       .  S
In384       O386   2.255       .  S
In384       O387   2.244       .  S
In384       O395   2.237       .  S
In384       O389   2.304       .  S
In384       O391   2.265       .  S
In384       O392   2.254       .  S
In384       O393   2.267       .  S
In384       O396   2.237       .  S
C385        O391   1.259       .  A
C385        O393   1.261       .  A
C385        C781   1.492       .  S
O386        C394   1.267       .  A
O387        C394   1.261       .  A
C388        O395   1.256       .  A
C388        O389   1.263       .  A
C388        C818   1.496       .  S
C390        O392   1.259       .  A
C390        O396   1.260       .  A
C390        C865   1.481       .  S
C394       C1677   1.488       .  S
In397       O399   2.271       .  S
In397       O400   2.235       .  S
In397       O408   2.246       .  S
In397       O402   2.265       .  S
In397       O404   2.219       .  S
In397       O405   2.266       .  S
In397       O406   2.275       .  S
In397       O409   2.235       .  S
C398        O404   1.258       .  A
C398        O406   1.264       .  A
C398        C846   1.485       .  S
O399        C407   1.264       .  A
O400        C407   1.260       .  A
C401        O408   1.259       .  A
C401        O402   1.260       .  A
C401        C753   1.486       .  S
C403        O405   1.260       .  A
C403        O409   1.259       .  A
C403        C725   1.484       .  S
C407       C1733   1.490       .  S
In410       O412   2.236       .  S
In410       O413   2.228       .  S
In410       O421   2.242       .  S
In410       O415   2.271       .  S
In410       O417   2.268       .  S
In410       O418   2.258       .  S
In410       O419   2.238       .  S
In410       O422   2.251       .  S
C411        O417   1.267       .  A
C411        O419   1.260       .  A
C411       C1098   1.491       .  S
O412        C420   1.261       .  A
O413        C420   1.262       .  A
C414        O421   1.256       .  A
C414        O415   1.263       .  A
C414        C762   1.488       .  S
C416        O418   1.257       .  A
C416        O422   1.260       .  A
C416        C669   1.475       .  S
C420        C697   1.473       .  S
In423       O425   2.235       .  S
In423       O426   2.254       .  S
In423       O434   2.260       .  S
In423       O428   2.277       .  S
In423       O430   2.269       .  S
In423       O431   2.264       .  S
In423       O432   2.257       .  S
In423       O435   2.286       .  S
C424        O430   1.262       .  A
C424        O432   1.257       .  A
C424        C790   1.489       .  S
O425        C433   1.262       .  A
O426        C433   1.263       .  A
C427        O434   1.260       .  A
C427        O428   1.260       .  A
C427        C641   1.494       .  S
C429        O431   1.258       .  A
C429        O435   1.260       .  A
C429       C1826   1.496       .  S
C433        C734   1.483       .  S
In436       O438   2.262       .  S
In436       O439   2.256       .  S
In436       O447   2.255       .  S
In436       O441   2.275       .  S
In436       O443   2.270       .  S
In436       O444   2.258       .  S
In436       O445   2.241       .  S
In436       O448   2.243       .  S
C437        O443   1.260       .  A
C437        O445   1.260       .  A
C437        C986   1.489       .  S
O438        C446   1.263       .  A
O439        C446   1.258       .  A
C440        O447   1.262       .  A
C440        O441   1.262       .  A
C440        C650   1.496       .  S
C442        O444   1.260       .  A
C442        O448   1.260       .  A
C442        C706   1.479       .  S
C446        C622   1.491       .  S
C449        C450   1.546       .  S
C449        C455   1.551       .  S
C449        C453   1.535       .  S
C449        C949   1.551       .  S
C450        H457   1.084       .  S
C450        C451   1.376       .  D
C451        C452   1.543       .  S
C451       C2386   1.496       .  S
C452        C456   1.538       .  S
C452        C454   1.530       .  S
C452        H458   1.109       .  S
C453        H459   1.087       .  S
C453        C454   1.362       .  D
C454        C557   1.480       .  S
C455        H460   1.079       .  S
C455        C456   1.365       .  D
C456        C585   1.488       .  S
C461        C462   1.550       .  S
C461        C467   1.532       .  S
C461        C465   1.544       .  S
C461       C1070   1.541       .  S
C462        H469   1.084       .  S
C462        C463   1.363       .  D
C463        C464   1.531       .  S
C463        C529   1.482       .  S
C464        C468   1.538       .  S
C464        C466   1.549       .  S
C464        H470   1.111       .  S
C465        H471   1.081       .  S
C465        C466   1.374       .  D
C466       C2274   1.496       .  S
C467        H472   1.085       .  S
C467        C468   1.363       .  D
C468        C594   1.489       .  S
C473        C474   1.539       .  S
C473        C479   1.535       .  S
C473        C477   1.554       .  S
C473        C613   1.544       .  S
C474        H481   1.084       .  S
C474        C475   1.364       .  D
C475        C476   1.529       .  S
C475        C566   1.482       .  S
C476        C480   1.538       .  S
C476        C478   1.545       .  S
C476        H482   1.108       .  S
C477        H483   1.081       .  S
C477        C478   1.374       .  D
C478       C2190   1.499       .  S
C479        H484   1.084       .  S
C479        C480   1.365       .  D
C480        C501   1.491       .  S
C485        C486   1.548       .  S
C485        C491   1.536       .  S
C485        C489   1.537       .  S
C485        C678   1.540       .  S
C486        H493   1.081       .  S
C486        C487   1.367       .  D
C487        C488   1.541       .  S
C487       C2097   1.489       .  S
C488        C492   1.541       .  S
C488        C490   1.539       .  S
C488        H494   1.109       .  S
C489        H495   1.085       .  S
C489        C490   1.363       .  D
C490        C538   1.490       .  S
C491        H496   1.081       .  S
C491        C492   1.367       .  D
C492        C510   1.486       .  S
C497        C498   1.395       .  A
C497        C502   1.394       .  A
C497        H507   1.085       .  S
C498        C503   1.474       .  S
C498        C499   1.405       .  A
C499        C500   1.404       .  A
C499        N504   1.427       .  S
C500        C501   1.407       .  A
C500        H505   1.083       .  S
C501        C502   1.417       .  A
C502        N506   1.426       .  S
C503        C508   1.407   1_554  A
C503        C512   1.400   1_554  A
N504        O519   1.262       .  A
N504        O520   1.262       .  A
N506        O517   1.262       .  A
N506        O518   1.262       .  A
C508        C509   1.399       .  A
C508        N513   1.429   1_556  S
C509        C510   1.405       .  A
C509        H514   1.084       .  S
C510        C511   1.414       .  A
C511        C512   1.400       .  A
C511        N515   1.429       .  S
C512        H516   1.084   1_556  S
N513        O523   1.262       .  A
N513        O524   1.261       .  A
N515        O521   1.262       .  A
N515        O522   1.261       .  A
C525        C526   1.403   1_655  A
C525        C530   1.401       .  A
C525        H535   1.083   1_655  S
C526        C531   1.486       .  S
C526        C527   1.413   1_455  A
C527        C528   1.401       .  A
C527        N532   1.429       .  S
C528        C529   1.402       .  A
C528        H533   1.084       .  S
C529        C530   1.410       .  A
C530        N534   1.429       .  S
C531        C536   1.412       .  A
C531        C540   1.400       .  A
N532        O547   1.262       .  A
N532        O548   1.262       .  A
N534        O545   1.262       .  A
N534        O546   1.262       .  A
C536        C537   1.405       .  A
C536        N541   1.428       .  S
C537        C538   1.404       .  A
C537        H542   1.084       .  S
C538        C539   1.414       .  A
C539        C540   1.398       .  A
C539        N543   1.428       .  S
C540        H544   1.084       .  S
N541        O551   1.262       .  A
N541        O552   1.262       .  A
N543        O549   1.262       .  A
N543        O550   1.262       .  A
C553        C554   1.401   1_655  A
C553        C558   1.402       .  A
C553        H563   1.084       .  S
C554        C559   1.476       .  S
C554        C555   1.408   1_455  A
C555        C556   1.396       .  A
C555        N560   1.429   1_655  S
C556        C557   1.402       .  A
C556        H561   1.084       .  S
C557        C558   1.412       .  A
C558        N562   1.428       .  S
C559        C564   1.408       .  A
C559        C568   1.399       .  A
N560        O575   1.262       .  A
N560        O576   1.262       .  A
N562        O573   1.261       .  A
N562        O574   1.262       .  A
C564        C565   1.398       .  A
C564        N569   1.428       .  S
C565        C566   1.403       .  A
C565        H570   1.084       .  S
C566        C567   1.414       .  A
C567        C568   1.400       .  A
C567        N571   1.428       .  S
C568        H572   1.084       .  S
N569        O579   1.262       .  A
N569        O580   1.262       .  A
N571        O577   1.262       .  A
N571        O578   1.261       .  A
C581        C582   1.404       .  A
C581        C586   1.404       .  A
C581        H591   1.083       .  S
C582        C587   1.492   1_554  S
C582        C583   1.414       .  A
C583        C584   1.403       .  A
C583        N588   1.430       .  S
C584        C585   1.402       .  A
C584        H589   1.084       .  S
C585        C586   1.412       .  A
C586        N590   1.428       .  S
C587        C592   1.413       .  A
C587        C596   1.403       .  A
N588        O603   1.262       .  A
N588        O604   1.262       .  A
N590        O601   1.262       .  A
N590        O602   1.262       .  A
C592        C593   1.406       .  A
C592        N597   1.428       .  S
C593        C594   1.403       .  A
C593        H598   1.084       .  S
C594        C595   1.414       .  A
C595        C596   1.400       .  A
C595        N599   1.430       .  S
C596        H600   1.084       .  S
N597        O607   1.262       .  A
N597        O608   1.262       .  A
N599        O605   1.262       .  A
N599        O606   1.262       .  A
C609        C610   1.397       .  A
C609        C614   1.399       .  A
C609        H619   1.083       .  S
C610        C615   1.494       .  S
C610        C611   1.411       .  A
C611        C612   1.407       .  A
C611        N616   1.429       .  S
C612        C613   1.411       .  A
C612        H617   1.078       .  S
C613        C614   1.427       .  A
C614        N618   1.430       .  S
C615        C620   1.415       .  A
C615        C624   1.403       .  A
N616        O631   1.262       .  A
N616        O632   1.262       .  A
N618        O629   1.261       .  A
N618        O630   1.262       .  A
C620        C621   1.403       .  A
C620        N625   1.429       .  S
C621        C622   1.404       .  A
C621        H626   1.084       .  S
C622        C623   1.417       .  A
C623        C624   1.403       .  A
C623        N627   1.429       .  S
C624        H628   1.083       .  S
N625        O635   1.262       .  A
N625        O636   1.261       .  A
N627        O633   1.262       .  A
N627        O634   1.262       .  A
C637        C638   1.405       .  A
C637        C642   1.406       .  A
C637        H647   1.084       .  S
C638        C643   1.497       .  S
C638        C639   1.413       .  A
C639        C640   1.405       .  A
C639        N644   1.430       .  S
C640        C641   1.406       .  A
C640        H645   1.084       .  S
C641        C642   1.416       .  A
C642        N646   1.428       .  S
C643        C648   1.413       .  A
C643        C652   1.405       .  A
N644        O659   1.262       .  A
N644        O660   1.262       .  A
N646        O657   1.262       .  A
N646        O658   1.262       .  A
C648        C649   1.404       .  A
C648        N653   1.430       .  S
C649        C650   1.406       .  A
C649        H654   1.084       .  S
C650        C651   1.416       .  A
C651        C652   1.407       .  A
C651        N655   1.428       .  S
C652        H656   1.084       .  S
N653        O663   1.262       .  A
N653        O664   1.262       .  A
N655        O661   1.262       .  A
N655        O662   1.262       .  A
C665        C666   1.403       .  A
C665        C670   1.403       .  A
C665        H675   1.083       .  S
C666        C671   1.483       .  S
C666        C667   1.410       .  A
C667        C668   1.398       .  A
C667        N672   1.430       .  S
C668        C669   1.401       .  A
C668        H673   1.084       .  S
C669        C670   1.411       .  A
C670        N674   1.428       .  S
C671        C676   1.405       .  A
C671        C680   1.397       .  A
N672        O687   1.262       .  A
N672        O688   1.262       .  A
N674        O685   1.262       .  A
N674        O686   1.262       .  A
C676        C677   1.402       .  A
C676        N681   1.429       .  S
C677        C678   1.413       .  A
C677        H682   1.076       .  S
C678        C679   1.425       .  A
C679        C680   1.399       .  A
C679        N683   1.430       .  S
C680        H684   1.084       .  S
N681        O691   1.262       .  A
N681        O692   1.262       .  A
N683        O689   1.261       .  A
N683        O690   1.262       .  A
C693        C694   1.401       .  A
C693        C698   1.398       .  A
C693        H703   1.084       .  S
C694        C699   1.475       .  S
C694        C695   1.408       .  A
C695        C696   1.397       .  A
C695        N700   1.428       .  S
C696        C697   1.403       .  A
C696        H701   1.084       .  S
C697        C698   1.412       .  A
C698        N702   1.429       .  S
C699        C704   1.408       .  A
C699        C708   1.400       .  A
N700        O715   1.262       .  A
N700        O716   1.262       .  A
N702        O713   1.262       .  A
N702        O714   1.262       .  A
C704        C705   1.400       .  A
C704        N709   1.430       .  S
C705        C706   1.406       .  A
C705        H710   1.084       .  S
C706        C707   1.413       .  A
C707        C708   1.398       .  A
C707        N711   1.429       .  S
C708        H712   1.084       .  S
N709        O719   1.262       .  A
N709        O720   1.262       .  A
N711        O717   1.262       .  A
N711        O718   1.262       .  A
C721        C722   1.401       .  A
C721        C726   1.402       .  A
C721        H731   1.084       .  S
C722        C727   1.477       .  S
C722        C723   1.405       .  A
C723        C724   1.398       .  A
C723        N728   1.428       .  S
C724        C725   1.407       .  A
C724        H729   1.084       .  S
C725        C726   1.415       .  A
C726        N730   1.429       .  S
C727        C732   1.406       .  A
C727        C736   1.400       .  A
N728        O743   1.262       .  A
N728        O744   1.261       .  A
N730        O741   1.262       .  A
N730        O742   1.262       .  A
C732        C733   1.399       .  A
C732        N737   1.428       .  S
C733        C734   1.406       .  A
C733        H738   1.084       .  S
C734        C735   1.415       .  A
C735        C736   1.400       .  A
C735        N739   1.428       .  S
C736        H740   1.084       .  S
N737        O747   1.262       .  A
N737        O748   1.262       .  A
N739        O745   1.261       .  A
N739        O746   1.262       .  A
C749        C750   1.404       .  A
C749        C754   1.403       .  A
C749        H759   1.083       .  S
C750        C755   1.489       .  S
C750        C751   1.411       .  A
C751        C752   1.401       .  A
C751        N756   1.429       .  S
C752        C753   1.405       .  A
C752        H757   1.084       .  S
C753        C754   1.414       .  A
C754        N758   1.428       .  S
C755        C760   1.411       .  A
C755        C764   1.402       .  A
N756        O771   1.262       .  A
N756        O772   1.262       .  A
N758        O769   1.262       .  A
N758        O770   1.262       .  A
C760        C761   1.404       .  A
C760        N765   1.428       .  S
C761        C762   1.405       .  A
C761        H766   1.084       .  S
C762        C763   1.416       .  A
C763        C764   1.401       .  A
C763        N767   1.430       .  S
C764        H768   1.084       .  S
N765        O775   1.262       .  A
N765        O776   1.262       .  A
N767        O773   1.262       .  A
N767        O774   1.262       .  A
C777        C778   1.403       .  A
C777        C782   1.402       .  A
C777        H787   1.083       .  S
C778        C783   1.494   1_545  S
C778        C779   1.413       .  A
C779        C780   1.405       .  A
C779        N784   1.429       .  S
C780        C781   1.406       .  A
C780        H785   1.084       .  S
C781        C782   1.415       .  A
C782        N786   1.429       .  S
C783        C788   1.413       .  A
C783        C792   1.404       .  A
N784        O799   1.262       .  A
N784        O800   1.262       .  A
N786        O797   1.262       .  A
N786        O798   1.262       .  A
C788        C789   1.403       .  A
C788        N793   1.428       .  S
C789        C790   1.404       .  A
C789        H794   1.084       .  S
C790        C791   1.415       .  A
C791        C792   1.403       .  A
C791        N795   1.428       .  S
C792        H796   1.083       .  S
N793        O803   1.262       .  A
N793        O804   1.261       .  A
N795        O801   1.261       .  A
N795        O802   1.262       .  A
C805        C806   1.403       .  A
C805        C810   1.404       .  A
C805        H815   1.084       .  S
C806        C811   1.493       .  S
C806        C807   1.412       .  A
C807        C808   1.405       .  A
C807        N812   1.429       .  S
C808        C809   1.407       .  A
C808        H813   1.084       .  S
C809        C810   1.416       .  A
C810        N814   1.428       .  S
C811        C816   1.410       .  A
C811        C820   1.406       .  A
N812        O827   1.262       .  A
N812        O828   1.262       .  A
N814        O825   1.262       .  A
N814        O826   1.262       .  A
C816        C817   1.402       .  A
C816        N821   1.429       .  S
C817        C818   1.408       .  A
C817        H822   1.084       .  S
C818        C819   1.415       .  A
C819        C820   1.409       .  A
C819        N823   1.428       .  S
C820        H824   1.084       .  S
N821        O831   1.262       .  A
N821        O832   1.262       .  A
N823        O829   1.262       .  A
N823        O830   1.262       .  A
C833        C834   1.402       .  A
C833        C838   1.403       .  A
C833        H843   1.084       .  S
C834        C839   1.478   1_545  S
C834        C835   1.407       .  A
C835        C836   1.398       .  A
C835        N840   1.429       .  S
C836        C837   1.406       .  A
C836        H841   1.084       .  S
C837        C838   1.413       .  A
C838        N842   1.428       .  S
C839        C844   1.407       .  A
C839        C848   1.402       .  A
N840        O855   1.262       .  A
N840        O856   1.261       .  A
N842        O853   1.262       .  A
N842        O854   1.262       .  A
C844        C845   1.396       .  A
C844        N849   1.430       .  S
C845        C846   1.406       .  A
C845        H850   1.084       .  S
C846        C847   1.414       .  A
C847        C848   1.405       .  A
C847        N851   1.428       .  S
C848        H852   1.084       .  S
N849        O859   1.262       .  A
N849        O860   1.262       .  A
N851        O857   1.262       .  A
N851        O858   1.262       .  A
C861        C862   1.405       .  A
C861        C866   1.401       .  A
C861        H871   1.083       .  S
C862        C867   1.490       .  S
C862        C863   1.413       .  A
C863        C864   1.397       .  A
C863        N868   1.429       .  S
C864        C865   1.402       .  A
C864        H869   1.084       .  S
C865        C866   1.413       .  A
C866        N870   1.429       .  S
C867        C872   1.414       .  A
C867        C876   1.404       .  A
N868        O883   1.262       .  A
N868        O884   1.261       .  A
N870        O881   1.262       .  A
N870        O882   1.262       .  A
C872        C873   1.400       .  A
C872        N877   1.429       .  S
C873        C874   1.403       .  A
C873        H878   1.084       .  S
C874        C875   1.413       .  A
C875        C876   1.401       .  A
C875        N879   1.429       .  S
C876        H880   1.083       .  S
N877        O887   1.262       .  A
N877        O888   1.262       .  A
N879        O885   1.262       .  A
N879        O886   1.262       .  A
C889        C890   1.403       .  A
C889        C894   1.402       .  A
C889        H899   1.084       .  S
C890        C895   1.478       .  S
C890        C891   1.407       .  A
C891        C892   1.394       .  A
C891        N896   1.429       .  S
C892        C893   1.403       .  A
C892        H897   1.084       .  S
C893        C894   1.413       .  A
C894        N898   1.429       .  S
C895        C900   1.406       .  A
C895        C904   1.401       .  A
N896        O911   1.262       .  A
N896        O912   1.262       .  A
N898        O909   1.262       .  A
N898        O910   1.262       .  A
C900        C901   1.399       .  A
C900        N905   1.429       .  S
C901        C902   1.406       .  A
C901        H906   1.084       .  S
C902        C903   1.415       .  A
C903        C904   1.399       .  A
C903        N907   1.429       .  S
C904        H908   1.084       .  S
N905        O915   1.262       .  A
N905        O916   1.262       .  A
N907        O913   1.262       .  A
N907        O914   1.262       .  A
C917        C918   1.405       .  A
C917        C922   1.405       .  A
C917        H927   1.083       .  S
C918        C923   1.494       .  S
C918        C919   1.412       .  A
C919        C920   1.401       .  A
C919        N924   1.429       .  S
C920        C921   1.405       .  A
C920        H925   1.084       .  S
C921        C922   1.415       .  A
C922        N926   1.429       .  S
C923        C928   1.412       .  A
C923        C932   1.405       .  A
N924        O939   1.262       .  A
N924        O940   1.262       .  A
N926        O937   1.262       .  A
N926        O938   1.262       .  A
C928        C929   1.401       .  A
C928        N933   1.429       .  S
C929        C930   1.406       .  A
C929        H934   1.084       .  S
C930        C931   1.414       .  A
C931        C932   1.404       .  A
C931        N935   1.429       .  S
C932        H936   1.083       .  S
N933        O943   1.262       .  A
N933        O944   1.262       .  A
N935        O941   1.262       .  A
N935        O942   1.262       .  A
C945        C946   1.402       .  A
C945        C950   1.407       .  A
C945        H955   1.083       .  S
C946        C951   1.497       .  S
C946        C947   1.408       .  A
C947        C948   1.404       .  A
C947        N952   1.429       .  S
C948        C949   1.415       .  A
C948        H953   1.075       .  S
C949        C950   1.424       .  A
C950        N954   1.429       .  S
C951        C956   1.411       .  A
C951        C960   1.406       .  A
N952        O967   1.262       .  A
N952        O968   1.262       .  A
N954        O965   1.262       .  A
N954        O966   1.261       .  A
C956        C957   1.405       .  A
C956        N961   1.428       .  S
C957        C958   1.407       .  A
C957        H962   1.084       .  S
C958        C959   1.416       .  A
C959        C960   1.406       .  A
C959        N963   1.429       .  S
C960        H964   1.083       .  S
N961        O971   1.262       .  A
N961        O972   1.262       .  A
N963        O969   1.262       .  A
N963        O970   1.262       .  A
C973        C974   1.402       .  A
C973        C978   1.400       .  A
C973        H983   1.083       .  S
C974        C979   1.491   1_655  S
C974        C975   1.411       .  A
C975        C976   1.405       .  A
C975        N980   1.428       .  S
C976        C977   1.407       .  A
C976        H981   1.084       .  S
C977        C978   1.415       .  A
C978        N982   1.429       .  S
C979        C984   1.411       .  A
C979        C988   1.405       .  A
N980        O995   1.262       .  A
N980        O996   1.262       .  A
N982        O993   1.262       .  A
N982        O994   1.262       .  A
C984        C985   1.398       .  A
C984        N989   1.429       .  S
C985        C986   1.404       .  A
C985        H990   1.084       .  S
C986        C987   1.416       .  A
C987        C988   1.407       .  A
C987        N991   1.429       .  S
C988        H992   1.083       .  S
N989        O999   1.262       .  A
N989       O1000   1.261       .  A
N991        O997   1.262       .  A
N991        O998   1.262       .  A
C1001      C1002   1.406       .  A
C1001      C1006   1.407       .  A
C1001      H1011   1.084       .  S
C1002      C1007   1.494       .  S
C1002      C1003   1.413       .  A
C1003      C1004   1.404       .  A
C1003      N1008   1.430       .  S
C1004      C1005   1.406       .  A
C1004      H1009   1.084       .  S
C1005      C1006   1.414       .  A
C1006      N1010   1.428       .  S
C1007      C1012   1.414       .  A
C1007      C1016   1.403       .  A
N1008      O1023   1.262       .  A
N1008      O1024   1.262       .  A
N1010      O1021   1.262       .  A
N1010      O1022   1.262       .  A
C1012      C1013   1.405       .  A
C1012      N1017   1.429       .  S
C1013      C1014   1.405       .  A
C1013      H1018   1.084       .  S
C1014      C1015   1.415       .  A
C1015      C1016   1.403       .  A
C1015      N1019   1.428       .  S
C1016      H1020   1.084       .  S
N1017      O1027   1.262       .  A
N1017      O1028   1.262       .  A
N1019      O1025   1.262       .  A
N1019      O1026   1.261       .  A
C1029      C1030   1.399       .  A
C1029      C1034   1.398       .  A
C1029      H1039   1.084       .  S
C1030      C1035   1.476       .  S
C1030      C1031   1.408       .  A
C1031      C1032   1.401       .  A
C1031      N1036   1.429       .  S
C1032      C1033   1.406       .  A
C1032      H1037   1.084       .  S
C1033      C1034   1.415       .  A
C1034      N1038   1.428       .  S
C1035      C1040   1.406       .  A
C1035      C1044   1.402       .  A
N1036      O1051   1.262       .  A
N1036      O1052   1.262       .  A
N1038      O1049   1.262       .  A
N1038      O1050   1.262       .  A
C1040      C1041   1.396       .  A
C1040      N1045   1.429       .  S
C1041      C1042   1.405       .  A
C1041      H1046   1.084       .  S
C1042      C1043   1.414       .  A
C1043      C1044   1.402       .  A
C1043      N1047   1.428       .  S
C1044      H1048   1.084       .  S
N1045      O1055   1.262       .  A
N1045      O1056   1.262       .  A
N1047      O1053   1.261       .  A
N1047      O1054   1.262       .  A
C1057      C1058   1.407       .  A
C1057      C1062   1.406       .  A
C1057      H1067   1.083       .  S
C1058      C1063   1.492       .  S
C1058      C1059   1.409       .  A
C1059      C1060   1.397       .  A
C1059      N1064   1.428       .  S
C1060      C1061   1.404       .  A
C1060      H1065   1.084       .  S
C1061      C1062   1.415       .  A
C1062      N1066   1.429       .  S
C1063      C1068   1.407       .  A
C1063      C1072   1.404       .  A
N1064      O1079   1.262       .  A
N1064      O1080   1.262       .  A
N1066      O1077   1.261       .  A
N1066      O1078   1.262       .  A
C1068      C1069   1.398       .  A
C1068      N1073   1.429       .  S
C1069      C1070   1.413       .  A
C1069      H1074   1.082       .  S
C1070      C1071   1.421       .  A
C1071      C1072   1.406       .  A
C1071      N1075   1.428       .  S
C1072      H1076   1.083       .  S
N1073      O1083   1.262       .  A
N1073      O1084   1.262       .  A
N1075      O1081   1.262       .  A
N1075      O1082   1.262       .  A
C1085      C1086   1.404       .  A
C1085      C1090   1.406       .  A
C1085      H1095   1.084       .  S
C1086      C1091   1.491   1_655  S
C1086      C1087   1.411       .  A
C1087      C1088   1.401       .  A
C1087      N1092   1.429       .  S
C1088      C1089   1.405       .  A
C1088      H1093   1.084       .  S
C1089      C1090   1.413       .  A
C1090      N1094   1.427       .  S
C1091      C1096   1.411       .  A
C1091      C1100   1.402       .  A
N1092      O1107   1.262       .  A
N1092      O1108   1.262       .  A
N1094      O1105   1.262       .  A
N1094      O1106   1.261       .  A
C1096      C1097   1.407       .  A
C1096      N1101   1.428       .  S
C1097      C1098   1.407       .  A
C1097      H1102   1.083       .  S
C1098      C1099   1.417       .  A
C1099      C1100   1.400       .  A
C1099      N1103   1.429       .  S
C1100      H1104   1.084       .  S
N1101      O1111   1.262       .  A
N1101      O1112   1.262       .  A
N1103      O1109   1.262       .  A
N1103      O1110   1.262       .  A
C1113      C1114   1.406       .  A
C1113      C1118   1.406       .  A
C1113      H1123   1.083       .  S
C1114      C1119   1.489       .  S
C1114      C1115   1.409       .  A
C1115      C1116   1.397       .  A
C1115      N1120   1.429       .  S
C1116      C1117   1.404       .  A
C1116      H1121   1.084       .  S
C1117      C1118   1.414       .  A
C1118      N1122   1.429       .  S
C1119      C1124   1.410       .  A
C1119      C1128   1.405       .  A
N1120      O1135   1.262       .  A
N1120      O1136   1.262       .  A
N1122      O1133   1.262       .  A
N1122      O1134   1.262       .  A
C1124      C1125   1.400       .  A
C1124      N1129   1.428       .  S
C1125      C1126   1.405       .  A
C1125      H1130   1.084       .  S
C1126      C1127   1.413       .  A
C1127      C1128   1.402       .  A
C1127      N1131   1.429       .  S
C1128      H1132   1.083       .  S
N1129      O1139   1.262       .  A
N1129      O1140   1.262       .  A
N1131      O1137   1.262       .  A
N1131      O1138   1.262       .  A
C1141      C1142   1.403       .  A
C1141      C1146   1.402       .  A
C1141      H1151   1.083       .  S
C1142      C1147   1.492       .  S
C1142      C1143   1.412       .  A
C1143      C1144   1.403       .  A
C1143      N1148   1.429       .  S
C1144      C1145   1.407       .  A
C1144      H1149   1.084       .  S
C1145      C1146   1.414       .  A
C1146      N1150   1.428       .  S
C1147      C1152   1.412       .  A
C1147      C1156   1.406       .  A
N1148      O1163   1.262       .  A
N1148      O1164   1.262       .  A
N1150      O1161   1.262       .  A
N1150      O1162   1.262       .  A
C1152      C1153   1.397       .  A
C1152      N1157   1.429       .  S
C1153      C1154   1.405       .  A
C1153      H1158   1.084       .  S
C1154      C1155   1.414       .  A
C1155      C1156   1.406       .  A
C1155      N1159   1.429       .  S
C1156      H1160   1.083       .  S
N1157      O1167   1.262       .  A
N1157      O1168   1.262       .  A
N1159      O1165   1.262       .  A
N1159      O1166   1.262       .  A
C1169      C1170   1.400   1_545  A
C1169      C1174   1.400       .  A
C1169      H1179   1.084   1_545  S
C1170      C1175   1.484       .  S
C1170      C1171   1.409   1_565  A
C1171      C1172   1.405       .  A
C1171      N1176   1.428   1_545  S
C1172      C1173   1.406       .  A
C1172      H1177   1.084       .  S
C1173      C1174   1.417       .  A
C1174      N1178   1.429       .  S
C1175      C1180   1.409       .  A
C1175      C1184   1.402       .  A
N1176      O1191   1.262       .  A
N1176      O1192   1.262       .  A
N1178      O1189   1.262       .  A
N1178      O1190   1.262       .  A
C1180      C1181   1.402       .  A
C1180      N1185   1.428       .  S
C1181      C1182   1.404       .  A
C1181      H1186   1.084       .  S
C1182      C1183   1.415       .  A
C1183      C1184   1.403       .  A
C1183      N1187   1.429       .  S
C1184      H1188   1.084       .  S
N1185      O1195   1.262       .  A
N1185      O1196   1.262       .  A
N1187      O1193   1.262       .  A
N1187      O1194   1.262       .  A
C1197      C1198   1.406       .  A
C1197      C1202   1.408       .  A
C1197      H1207   1.082       .  S
C1198      C1203   1.497   1_655  S
C1198      C1199   1.415       .  A
C1199      C1200   1.399       .  A
C1199      N1204   1.430       .  S
C1200      C1201   1.404       .  A
C1200      H1205   1.084       .  S
C1201      C1202   1.415       .  A
C1202      N1206   1.428       .  S
C1203      C1208   1.414       .  A
C1203      C1212   1.403       .  A
N1204      O1219   1.262       .  A
N1204      O1220   1.262       .  A
N1206      O1217   1.262       .  A
N1206      O1218   1.262       .  A
C1208      C1209   1.407       .  A
C1208      N1213   1.429       .  S
C1209      C1210   1.407       .  A
C1209      H1214   1.084       .  S
C1210      C1211   1.416       .  A
C1211      C1212   1.400       .  A
C1211      N1215   1.429       .  S
C1212      H1216   1.083       .  S
N1213      O1223   1.262       .  A
N1213      O1224   1.262       .  A
N1215      O1221   1.262       .  A
N1215      O1222   1.262       .  A
C1225      C1226   1.404       .  A
C1225      C1230   1.406       .  A
C1225      H1235   1.084       .  S
C1226      C1231   1.494       .  S
C1226      C1227   1.411       .  A
C1227      C1228   1.404       .  A
C1227      N1232   1.429       .  S
C1228      C1229   1.406       .  A
C1228      H1233   1.084       .  S
C1229      C1230   1.415       .  A
C1230      N1234   1.429       .  S
C1231      C1236   1.411       .  A
C1231      C1240   1.404       .  A
N1232      O1247   1.262       .  A
N1232      O1248   1.262       .  A
N1234      O1245   1.262       .  A
N1234      O1246   1.262       .  A
C1236      C1237   1.404       .  A
C1236      N1241   1.429       .  S
C1237      C1238   1.406       .  A
C1237      H1242   1.084       .  S
C1238      C1239   1.415       .  A
C1239      C1240   1.406       .  A
C1239      N1243   1.428       .  S
C1240      H1244   1.083       .  S
N1241      O1251   1.262       .  A
N1241      O1252   1.262       .  A
N1243      O1249   1.262       .  A
N1243      O1250   1.262       .  A
C1253      C1254   1.404       .  A
C1253      C1258   1.404       .  A
C1253      H1263   1.083       .  S
C1254      C1259   1.489       .  S
C1254      C1255   1.411       .  A
C1255      C1256   1.400       .  A
C1255      N1260   1.429       .  S
C1256      C1257   1.406       .  A
C1256      H1261   1.084       .  S
C1257      C1258   1.415       .  A
C1258      N1262   1.428       .  S
C1259      C1264   1.411   1_565  A
C1259      C1268   1.403   1_565  A
N1260      O1275   1.262       .  A
N1260      O1276   1.261       .  A
N1262      O1273   1.262       .  A
N1262      O1274   1.262       .  A
C1264      C1265   1.402       .  A
C1264      N1269   1.428       .  S
C1265      C1266   1.404       .  A
C1265      H1270   1.084       .  S
C1266      C1267   1.416       .  A
C1267      C1268   1.401       .  A
C1267      N1271   1.429       .  S
C1268      H1272   1.083   1_545  S
N1269      O1279   1.262       .  A
N1269      O1280   1.262   1_545  A
N1271      O1277   1.262       .  A
N1271      O1278   1.262       .  A
C1281      C1282   1.402       .  A
C1281      C1286   1.400       .  A
C1281      H1291   1.083       .  S
C1282      C1287   1.478       .  S
C1282      C1283   1.408       .  A
C1283      C1284   1.395       .  A
C1283      N1288   1.429       .  S
C1284      C1285   1.402       .  A
C1284      H1289   1.084       .  S
C1285      C1286   1.414       .  A
C1286      N1290   1.429       .  S
C1287      C1292   1.408       .  A
C1287      C1296   1.401       .  A
N1288      O1303   1.262       .  A
N1288      O1304   1.262       .  A
N1290      O1301   1.262       .  A
N1290      O1302   1.262       .  A
C1292      C1293   1.399       .  A
C1292      N1297   1.429       .  S
C1293      C1294   1.405       .  A
C1293      H1298   1.084       .  S
C1294      C1295   1.414       .  A
C1295      C1296   1.396       .  A
C1295      N1299   1.429       .  S
C1296      H1300   1.084       .  S
N1297      O1307   1.262       .  A
N1297      O1308   1.262       .  A
N1299      O1305   1.262       .  A
N1299      O1306   1.262       .  A
C1309      C1310   1.401       .  A
C1309      C1314   1.402       .  A
C1309      H1319   1.084       .  S
C1310      C1315   1.482   1_655  S
C1310      C1311   1.408       .  A
C1311      C1312   1.404       .  A
C1311      N1316   1.428       .  S
C1312      C1313   1.405       .  A
C1312      H1317   1.084       .  S
C1313      C1314   1.412       .  A
C1314      N1318   1.429       .  S
C1315      C1320   1.405       .  A
C1315      C1324   1.404       .  A
N1316      O1331   1.262       .  A
N1316      O1332   1.262       .  A
N1318      O1329   1.262       .  A
N1318      O1330   1.262       .  A
C1320      C1321   1.396       .  A
C1320      N1325   1.429       .  S
C1321      C1322   1.406       .  A
C1321      H1326   1.084       .  S
C1322      C1323   1.416       .  A
C1323      C1324   1.409       .  A
C1323      N1327   1.428       .  S
C1324      H1328   1.084       .  S
N1325      O1335   1.262       .  A
N1325      O1336   1.261       .  A
N1327      O1333   1.262       .  A
N1327      O1334   1.262       .  A
C1337      C1338   1.406       .  A
C1337      C1342   1.404       .  A
C1337      H1347   1.084       .  S
C1338      C1343   1.491       .  S
C1338      C1339   1.410       .  A
C1339      C1340   1.401       .  A
C1339      N1344   1.428       .  S
C1340      C1341   1.406       .  A
C1340      H1345   1.084       .  S
C1341      C1342   1.413       .  A
C1342      N1346   1.429       .  S
C1343      C1348   1.410       .  A
C1343      C1352   1.405       .  A
N1344      O1359   1.262       .  A
N1344      O1360   1.262       .  A
N1346      O1357   1.262       .  A
N1346      O1358   1.262       .  A
C1348      C1349   1.400       .  A
C1348      N1353   1.429       .  S
C1349      C1350   1.404       .  A
C1349      H1354   1.084       .  S
C1350      C1351   1.416       .  A
C1351      C1352   1.407       .  A
C1351      N1355   1.429       .  S
C1352      H1356   1.083       .  S
N1353      O1363   1.262       .  A
N1353      O1364   1.262       .  A
N1355      O1361   1.262       .  A
N1355      O1362   1.262       .  A
C1365      C1366   1.407       .  A
C1365      C1370   1.403       .  A
C1365      H1375   1.083       .  S
C1366      C1371   1.499       .  S
C1366      C1367   1.414       .  A
C1367      C1368   1.403       .  A
C1367      N1372   1.429       .  S
C1368      C1369   1.405       .  A
C1368      H1373   1.084       .  S
C1369      C1370   1.413       .  A
C1370      N1374   1.429       .  S
C1371      C1376   1.413       .  A
C1371      C1380   1.408       .  A
N1372      O1387   1.262       .  A
N1372      O1388   1.262       .  A
N1374      O1385   1.262       .  A
N1374      O1386   1.262       .  A
C1376      C1377   1.399       .  A
C1376      N1381   1.430       .  S
C1377      C1378   1.404       .  A
C1377      H1382   1.084       .  S
C1378      C1379   1.414       .  A
C1379      C1380   1.409       .  A
C1379      N1383   1.428       .  S
C1380      H1384   1.083       .  S
N1381      O1391   1.262       .  A
N1381      O1392   1.262       .  A
N1383      O1389   1.262       .  A
N1383      O1390   1.262       .  A
C1393      C1394   1.396       .  A
C1393      C1398   1.401       .  A
C1393      H1403   1.084       .  S
C1394      C1399   1.484       .  S
C1394      C1395   1.406       .  A
C1395      C1396   1.403       .  A
C1395      N1400   1.429       .  S
C1396      C1397   1.415       .  A
C1396      H1401   1.076       .  S
C1397      C1398   1.424       .  A
C1398      N1402   1.430       .  S
C1399      C1404   1.410       .  A
C1399      C1408   1.403       .  A
N1400      O1415   1.262       .  A
N1400      O1416   1.262       .  A
N1402      O1413   1.261       .  A
N1402      O1414   1.262       .  A
C1404      C1405   1.400       .  A
C1404      N1409   1.430       .  S
C1405      C1406   1.405       .  A
C1405      H1410   1.084       .  S
C1406      C1407   1.416       .  A
C1407      C1408   1.403       .  A
C1407      N1411   1.429       .  S
C1408      H1412   1.084       .  S
N1409      O1419   1.262       .  A
N1409      O1420   1.262       .  A
N1411      O1417   1.262       .  A
N1411      O1418   1.262       .  A
C1421      C1422   1.403       .  A
C1421      C1426   1.407       .  A
C1421      H1431   1.084       .  S
C1422      C1427   1.483   1_554  S
C1422      C1423   1.407       .  A
C1423      C1424   1.398       .  A
C1423      N1428   1.429       .  S
C1424      C1425   1.409       .  A
C1424      H1429   1.083       .  S
C1425      C1426   1.411       .  A
C1426      N1430   1.425       .  S
C1427      C1432   1.410       .  A
C1427      C1436   1.402       .  A
N1428      O1443   1.262       .  A
N1428      O1444   1.262       .  A
N1430      O1441   1.262       .  A
N1430      O1442   1.262       .  A
C1432      C1433   1.401       .  A
C1432      N1437   1.429       .  S
C1433      C1434   1.402       .  A
C1433      H1438   1.081       .  S
C1434      C1435   1.411       .  A
C1435      C1436   1.403       .  A
C1435      N1439   1.429       .  S
C1436      H1440   1.084       .  S
N1437      O1447   1.262       .  A
N1437      O1448   1.262       .  A
N1439      O1445   1.262       .  A
N1439      O1446   1.262       .  A
C1449      C1450   1.404       .  A
C1449      C1454   1.403       .  A
C1449      H1459   1.084       .  S
C1450      C1455   1.489       .  S
C1450      C1451   1.408       .  A
C1451      C1452   1.402       .  A
C1451      N1456   1.428       .  S
C1452      C1453   1.408       .  A
C1452      H1457   1.084       .  S
C1453      C1454   1.413       .  A
C1454      N1458   1.428       .  S
C1455      C1460   1.403       .  A
C1455      C1464   1.401       .  A
N1456      O1471   1.262       .  A
N1456      O1472   1.262       .  A
N1458      O1469   1.262       .  A
N1458      O1470   1.262       .  A
C1460      C1461   1.398       .  A
C1460      N1465   1.429       .  S
C1461      C1462   1.415       .  A
C1461      H1466   1.082       .  S
C1462      C1463   1.426       .  A
C1463      C1464   1.409       .  A
C1463      N1467   1.430       .  S
C1464      H1468   1.084       .  S
N1465      O1475   1.262       .  A
N1465      O1476   1.262       .  A
N1467      O1473   1.262       .  A
N1467      O1474   1.262       .  A
C1477      C1478   1.404       .  A
C1477      C1482   1.401       .  A
C1477      H1487   1.083       .  S
C1478      C1483   1.487   1_565  S
C1478      C1479   1.414       .  A
C1479      C1480   1.397       .  A
C1479      N1484   1.430       .  S
C1480      C1481   1.397       .  A
C1480      H1485   1.084       .  S
C1481      C1482   1.408       .  A
C1482      N1486   1.427       .  S
C1483      C1488   1.410       .  A
C1483      C1492   1.399       .  A
N1484      O1499   1.262       .  A
N1484      O1500   1.262       .  A
N1486      O1497   1.262       .  A
N1486      O1498   1.261       .  A
C1488      C1489   1.403       .  A
C1488      N1493   1.429       .  S
C1489      C1490   1.409       .  A
C1489      H1494   1.079       .  S
C1490      C1491   1.418       .  A
C1491      C1492   1.396       .  A
C1491      N1495   1.426       .  S
C1492      H1496   1.083   1_545  S
N1493      O1503   1.262       .  A
N1493      O1504   1.262       .  A
N1495      O1501   1.262       .  A
N1495      O1502   1.263       .  A
C1505      C1506   1.402       .  A
C1505      C1510   1.407       .  A
C1505      H1515   1.084       .  S
C1506      C1511   1.483       .  S
C1506      C1507   1.407       .  A
C1507      C1508   1.401       .  A
C1507      N1512   1.429       .  S
C1508      C1509   1.407       .  A
C1508      H1513   1.084       .  S
C1509      C1510   1.417       .  A
C1510      N1514   1.428       .  S
C1511      C1516   1.407       .  A
C1511      C1520   1.393       .  A
N1512      O1527   1.262       .  A
N1512      O1528   1.261       .  A
N1514      O1525   1.262       .  A
N1514      O1526   1.262       .  A
C1516      C1517   1.408       .  A
C1516      N1521   1.428       .  S
C1517      C1518   1.415       .  A
C1517      H1522   1.078       .  S
C1518      C1519   1.424       .  A
C1519      C1520   1.396       .  A
C1519      N1523   1.429       .  S
C1520      H1524   1.085       .  S
N1521      O1531   1.262       .  A
N1521      O1532   1.261       .  A
N1523      O1529   1.261       .  A
N1523      O1530   1.262       .  A
C1533      C1534   1.396       .  A
C1533      C1538   1.396       .  A
C1533      H1543   1.084       .  S
C1534      C1539   1.474   1_565  S
C1534      C1535   1.405       .  A
C1535      C1536   1.402       .  A
C1535      N1540   1.428       .  S
C1536      C1537   1.408       .  A
C1536      H1541   1.083       .  S
C1537      C1538   1.418       .  A
C1538      N1542   1.429       .  S
C1539      C1544   1.407       .  A
C1539      C1548   1.399       .  A
N1540      O1555   1.262       .  A
N1540      O1556   1.261       .  A
N1542      O1553   1.262       .  A
N1542      O1554   1.262       .  A
C1544      C1545   1.399       .  A
C1544      N1549   1.428       .  S
C1545      C1546   1.404       .  A
C1545      H1550   1.084       .  S
C1546      C1547   1.413       .  A
C1547      C1548   1.401       .  A
C1547      N1551   1.427       .  S
C1548      H1552   1.084       .  S
N1549      O1559   1.262       .  A
N1549      O1560   1.262       .  A
N1551      O1557   1.262       .  A
N1551      O1558   1.261       .  A
C1561      C1562   1.402       .  A
C1561      C1566   1.401       .  A
C1561      H1571   1.084       .  S
C1562      C1567   1.474   1_554  S
C1562      C1563   1.406       .  A
C1563      C1564   1.397       .  A
C1563      N1568   1.427       .  S
C1564      C1565   1.403       .  A
C1564      H1569   1.084       .  S
C1565      C1566   1.412       .  A
C1566      N1570   1.429       .  S
C1567      C1572   1.404       .  A
C1567      C1576   1.395       .  A
N1568      O1583   1.262       .  A
N1568      O1584   1.262       .  A
N1570      O1581   1.261       .  A
N1570      O1582   1.262       .  A
C1572      C1573   1.404       .  A
C1572      N1577   1.427       .  S
C1573      C1574   1.409       .  A
C1573      H1578   1.083       .  S
C1574      C1575   1.419       .  A
C1575      C1576   1.395       .  A
C1575      N1579   1.427       .  S
C1576      H1580   1.085       .  S
N1577      O1587   1.262       .  A
N1577      O1588   1.262       .  A
N1579      O1585   1.261       .  A
N1579      O1586   1.262       .  A
C1589      C1590   1.401       .  A
C1589      C1594   1.403       .  A
C1589      H1599   1.083       .  S
C1590      C1595   1.494       .  S
C1590      C1591   1.410       .  A
C1591      C1592   1.401       .  A
C1591      N1596   1.429       .  S
C1592      C1593   1.410       .  A
C1592      H1597   1.076       .  S
C1593      C1594   1.426       .  A
C1594      N1598   1.432       .  S
C1595      C1600   1.414       .  A
C1595      C1604   1.404       .  A
N1596      O1611   1.262       .  A
N1596      O1612   1.262       .  A
N1598      O1609   1.260       .  A
N1598      O1610   1.262       .  A
C1600      C1601   1.404       .  A
C1600      N1605   1.428       .  S
C1601      C1602   1.403       .  A
C1601      H1606   1.084       .  S
C1602      C1603   1.414       .  A
C1603      C1604   1.399       .  A
C1603      N1607   1.430       .  S
C1604      H1608   1.083       .  S
N1605      O1615   1.262       .  A
N1605      O1616   1.261       .  A
N1607      O1613   1.262       .  A
N1607      O1614   1.262       .  A
C1617      C1618   1.397       .  A
C1617      C1622   1.401       .  A
C1617      H1627   1.084       .  S
C1618      C1623   1.494       .  S
C1618      C1619   1.411       .  A
C1619      C1620   1.409       .  A
C1619      N1624   1.429       .  S
C1620      C1621   1.412       .  A
C1620      H1625   1.078       .  S
C1621      C1622   1.427       .  A
C1622      N1626   1.431       .  S
C1623      C1628   1.410       .  A
C1623      C1632   1.407       .  A
N1624      O1639   1.262       .  A
N1624      O1640   1.262       .  A
N1626      O1637   1.262       .  A
N1626      O1638   1.262       .  A
C1628      C1629   1.402       .  A
C1628      N1633   1.429       .  S
C1629      C1630   1.407       .  A
C1629      H1634   1.084       .  S
C1630      C1631   1.415       .  A
C1631      C1632   1.409       .  A
C1631      N1635   1.428       .  S
C1632      H1636   1.084       .  S
N1633      O1643   1.262       .  A
N1633      O1644   1.262       .  A
N1635      O1641   1.262       .  A
N1635      O1642   1.262       .  A
C1645      C1646   1.406       .  A
C1645      C1650   1.408       .  A
C1645      H1655   1.083       .  S
C1646      C1651   1.493   1_554  S
C1646      C1647   1.414       .  A
C1647      C1648   1.399       .  A
C1647      N1652   1.429       .  S
C1648      C1649   1.400       .  A
C1648      H1653   1.085       .  S
C1649      C1650   1.410       .  A
C1650      N1654   1.427       .  S
C1651      C1656   1.413       .  A
C1651      C1660   1.402       .  A
N1652      O1667   1.262       .  A
N1652      O1668   1.261   1_554  A
N1654      O1665   1.262       .  A
N1654      O1666   1.262       .  A
C1656      C1657   1.405       .  A
C1656      N1661   1.428       .  S
C1657      C1658   1.404       .  A
C1657      H1662   1.084       .  S
C1658      C1659   1.412       .  A
C1659      C1660   1.402       .  A
C1659      N1663   1.426       .  S
C1660      H1664   1.083       .  S
N1661      O1671   1.262       .  A
N1661      O1672   1.261       .  A
N1663      O1669   1.262       .  A
N1663      O1670   1.262       .  A
C1673      C1674   1.403       .  A
C1673      C1678   1.402       .  A
C1673      H1683   1.083       .  S
C1674      C1679   1.490       .  S
C1674      C1675   1.410       .  A
C1675      C1676   1.402       .  A
C1675      N1680   1.428       .  S
C1676      C1677   1.405       .  A
C1676      H1681   1.084       .  S
C1677      C1678   1.417       .  A
C1678      N1682   1.429       .  S
C1679      C1684   1.408       .  A
C1679      C1688   1.400       .  A
N1680      O1695   1.262       .  A
N1680      O1696   1.262       .  A
N1682      O1693   1.262       .  A
N1682      O1694   1.262       .  A
C1684      C1685   1.403       .  A
C1684      N1689   1.429       .  S
C1685      C1686   1.413       .  A
C1685      H1690   1.076       .  S
C1686      C1687   1.424       .  A
C1687      C1688   1.402       .  A
C1687      N1691   1.431       .  S
C1688      H1692   1.084       .  S
N1689      O1699   1.262       .  A
N1689      O1700   1.262       .  A
N1691      O1697   1.262       .  A
N1691      O1698   1.262       .  A
C1701      C1702   1.404       .  A
C1701      C1706   1.393       .  A
C1701      H1711   1.083       .  S
C1702      C1707   1.488       .  S
C1702      C1703   1.414       .  A
C1703      C1704   1.400       .  A
C1703      N1708   1.428       .  S
C1704      C1705   1.400       .  A
C1704      H1709   1.084       .  S
C1705      C1706   1.411       .  A
C1706      N1710   1.433       .  S
C1707      C1712   1.414   1_565  A
C1707      C1716   1.406   1_565  A
N1708      O1723   1.262       .  A
N1708      O1724   1.262       .  A
N1710      O1721   1.262       .  A
N1710      O1722   1.261       .  A
C1712      C1713   1.387       .  A
C1712      N1717   1.432   1_545  S
C1713      C1714   1.402       .  A
C1713      H1718   1.081       .  S
C1714      C1715   1.414       .  A
C1715      C1716   1.406       .  A
C1715      N1719   1.429       .  S
C1716      H1720   1.082   1_545  S
N1717      O1727   1.263       .  A
N1717      O1728   1.262       .  A
N1719      O1725   1.262       .  A
N1719      O1726   1.262       .  A
C1729      C1730   1.402       .  A
C1729      C1734   1.402       .  A
C1729      H1739   1.084       .  S
C1730      C1735   1.483       .  S
C1730      C1731   1.407       .  A
C1731      C1732   1.402       .  A
C1731      N1736   1.429       .  S
C1732      C1733   1.409       .  A
C1732      H1737   1.084       .  S
C1733      C1734   1.414       .  A
C1734      N1738   1.428       .  S
C1735      C1740   1.403       .  A
C1735      C1744   1.402       .  A
N1736      O1751   1.262       .  A
N1736      O1752   1.262       .  A
N1738      O1749   1.262       .  A
N1738      O1750   1.262       .  A
C1740      C1741   1.388       .  A
C1740      N1745   1.429       .  S
C1741      C1742   1.411       .  A
C1741      H1746   1.117       .  S
C1742      C1743   1.424       .  A
C1743      C1744   1.410       .  A
C1743      N1747   1.429       .  S
C1744      H1748   1.088       .  S
N1745      O1755   1.262       .  A
N1745      O1756   1.262       .  A
N1747      O1753   1.262       .  A
N1747      O1754   1.262       .  A
C1757      C1758   1.403       .  A
C1757      C1762   1.402       .  A
C1757      H1767   1.083       .  S
C1758      C1763   1.489       .  S
C1758      C1759   1.415       .  A
C1759      C1760   1.401       .  A
C1759      N1764   1.429       .  S
C1760      C1761   1.399       .  A
C1760      H1765   1.083       .  S
C1761      C1762   1.407       .  A
C1762      N1766   1.426       .  S
C1763      C1768   1.412   1_565  A
C1763      C1772   1.400   1_565  A
N1764      O1779   1.262       .  A
N1764      O1780   1.262       .  A
N1766      O1777   1.261       .  A
N1766      O1778   1.262       .  A
C1768      C1769   1.404       .  A
C1768      N1773   1.429   1_545  S
C1769      C1770   1.406       .  A
C1769      H1774   1.083       .  S
C1770      C1771   1.421       .  A
C1771      C1772   1.398       .  A
C1771      N1775   1.431       .  S
C1772      H1776   1.083   1_545  S
N1773      O1783   1.262       .  A
N1773      O1784   1.261       .  A
N1775      O1781   1.261       .  A
N1775      O1782   1.262       .  A
C1785      C1786   1.400       .  A
C1785      C1790   1.396       .  A
C1785      H1795   1.084       .  S
C1786      C1791   1.487   1_554  S
C1786      C1787   1.412       .  A
C1787      C1788   1.405       .  A
C1787      N1792   1.428       .  S
C1788      C1789   1.406       .  A
C1788      H1793   1.083       .  S
C1789      C1790   1.418       .  A
C1790      N1794   1.430       .  S
C1791      C1796   1.410       .  A
C1791      C1800   1.398       .  A
N1792      O1807   1.262       .  A
N1792      O1808   1.261       .  A
N1794      O1805   1.262       .  A
N1794      O1806   1.261       .  A
C1796      C1797   1.401       .  A
C1796      N1801   1.429       .  S
C1797      C1798   1.407       .  A
C1797      H1802   1.084       .  S
C1798      C1799   1.423       .  A
C1799      C1800   1.403       .  A
C1799      N1803   1.428       .  S
C1800      H1804   1.083       .  S
N1801      O1811   1.262       .  A
N1801      O1812   1.262       .  A
N1803      O1809   1.260       .  A
N1803      O1810   1.262       .  A
C1813      C1814   1.405       .  A
C1813      C1818   1.407       .  A
C1813      H1823   1.083       .  S
C1814      C1819   1.502       .  S
C1814      C1815   1.412       .  A
C1815      C1816   1.401       .  A
C1815      N1820   1.430       .  S
C1816      C1817   1.412       .  A
C1816      H1821   1.085       .  S
C1817      C1818   1.422       .  A
C1818      N1822   1.430       .  S
C1819      C1824   1.414       .  A
C1819      C1828   1.407       .  A
N1820      O1835   1.262       .  A
N1820      O1836   1.262       .  A
N1822      O1833   1.262       .  A
N1822      O1834   1.262       .  A
C1824      C1825   1.406       .  A
C1824      N1829   1.429       .  S
C1825      C1826   1.407       .  A
C1825      H1830   1.084       .  S
C1826      C1827   1.414       .  A
C1827      C1828   1.404       .  A
C1827      N1831   1.428       .  S
C1828      H1832   1.082       .  S
N1829      O1839   1.262       .  A
N1829      O1840   1.262       .  A
N1831      O1837   1.262       .  A
N1831      O1838   1.262       .  A
C1841      C1842   1.404       .  A
C1841      C1846   1.403       .  A
C1841      H1851   1.083       .  S
C1842      C1847   1.490       .  S
C1842      C1843   1.410       .  A
C1843      C1844   1.401       .  A
C1843      N1848   1.428       .  S
C1844      C1845   1.404       .  A
C1844      H1849   1.084       .  S
C1845      C1846   1.416       .  A
C1846      N1850   1.429       .  S
C1847      C1852   1.407       .  A
C1847      C1856   1.400       .  A
N1848      O1863   1.262       .  A
N1848      O1864   1.262       .  A
N1850      O1861   1.262       .  A
N1850      O1862   1.262       .  A
C1852      C1853   1.402       .  A
C1852      N1857   1.430       .  S
C1853      C1854   1.415       .  A
C1853      H1858   1.076       .  S
C1854      C1855   1.423       .  A
C1855      C1856   1.403       .  A
C1855      N1859   1.430       .  S
C1856      H1860   1.084       .  S
N1857      O1867   1.262       .  A
N1857      O1868   1.262       .  A
N1859      O1865   1.262       .  A
N1859      O1866   1.262       .  A
C1869      C1870   1.404       .  A
C1869      C1874   1.403       .  A
C1869      H1879   1.084       .  S
C1870      C1875   1.485   1_556  S
C1870      C1871   1.410       .  A
C1871      C1872   1.404       .  A
C1871      N1876   1.428       .  S
C1872      C1873   1.402       .  A
C1872      H1877   1.081       .  S
C1873      C1874   1.409       .  A
C1874      N1878   1.429       .  S
C1875      C1880   1.409       .  A
C1875      C1884   1.400       .  A
N1876      O1891   1.262       .  A
N1876      O1892   1.262       .  A
N1878      O1889   1.261       .  A
N1878      O1890   1.262       .  A
C1880      C1881   1.404       .  A
C1880      N1885   1.429       .  S
C1881      C1882   1.406       .  A
C1881      H1886   1.080       .  S
C1882      C1883   1.415       .  A
C1883      C1884   1.403       .  A
C1883      N1887   1.429       .  S
C1884      H1888   1.084       .  S
N1885      O1895   1.262       .  A
N1885      O1896   1.262       .  A
N1887      O1893   1.262       .  A
N1887      O1894   1.262       .  A
C1897      C1898   1.401       .  A
C1897      C1902   1.404       .  A
C1897      H1907   1.084       .  S
C1898      C1903   1.487       .  S
C1898      C1899   1.408       .  A
C1899      C1900   1.405       .  A
C1899      N1904   1.428       .  S
C1900      C1901   1.407       .  A
C1900      H1905   1.084       .  S
C1901      C1902   1.418       .  A
C1902      N1906   1.429       .  S
C1903      C1908   1.403       .  A
C1903      C1912   1.402       .  A
N1904      O1919   1.262       .  A
N1904      O1920   1.262       .  A
N1906      O1917   1.262       .  A
N1906      O1918   1.262       .  A
C1908      C1909   1.398       .  A
C1908      N1913   1.429       .  S
C1909      C1910   1.415       .  A
C1909      H1914   1.080       .  S
C1910      C1911   1.422       .  A
C1911      C1912   1.411       .  A
C1911      N1915   1.430       .  S
C1912      H1916   1.084       .  S
N1913      O1923   1.262       .  A
N1913      O1924   1.262       .  A
N1915      O1921   1.262       .  A
N1915      O1922   1.262       .  A
C1925      C1926   1.399       .  A
C1925      C1930   1.396       .  A
C1925      H1935   1.084       .  S
C1926      C1931   1.471   1_655  S
C1926      C1927   1.405       .  A
C1927      C1928   1.401       .  A
C1927      N1932   1.428       .  S
C1928      C1929   1.406       .  A
C1928      H1933   1.084       .  S
C1929      C1930   1.415       .  A
C1930      N1934   1.430       .  S
C1931      C1936   1.407       .  A
C1931      C1940   1.396       .  A
N1932      O1947   1.262       .  A
N1932      O1948   1.262       .  A
N1934      O1945   1.262       .  A
N1934      O1946   1.262       .  A
C1936      C1937   1.401       .  A
C1936      N1941   1.428       .  S
C1937      C1938   1.405       .  A
C1937      H1942   1.083       .  S
C1938      C1939   1.415       .  A
C1939      C1940   1.396       .  A
C1939      N1943   1.429       .  S
C1940      H1944   1.084       .  S
N1941      O1951   1.262       .  A
N1941      O1952   1.262       .  A
N1943      O1949   1.262       .  A
N1943      O1950   1.261       .  A
C1953      C1954   1.404       .  A
C1953      C1958   1.408       .  A
C1953      H1963   1.084       .  S
C1954      C1959   1.501       .  S
C1954      C1955   1.411       .  A
C1955      C1956   1.401       .  A
C1955      N1960   1.430       .  S
C1956      C1957   1.413       .  A
C1956      H1961   1.083       .  S
C1957      C1958   1.423       .  A
C1958      N1962   1.430       .  S
C1959      C1964   1.414       .  A
C1959      C1968   1.405       .  A
N1960      O1975   1.262       .  A
N1960      O1976   1.262       .  A
N1962      O1973   1.262       .  A
N1962      O1974   1.262       .  A
C1964      C1965   1.408       .  A
C1964      N1969   1.429       .  S
C1965      C1966   1.408       .  A
C1965      H1970   1.084       .  S
C1966      C1967   1.414       .  A
C1967      C1968   1.404       .  A
C1967      N1971   1.428       .  S
C1968      H1972   1.083       .  S
N1969      O1979   1.262       .  A
N1969      O1980   1.262       .  A
N1971      O1977   1.262       .  A
N1971      O1978   1.262       .  A
C1981      C1982   1.399       .  A
C1981      C1986   1.403       .  A
C1981      H1991   1.084       .  S
C1982      C1987   1.476   1_655  S
C1982      C1983   1.407       .  A
C1983      C1984   1.394       .  A
C1983      N1988   1.429       .  S
C1984      C1985   1.405       .  A
C1984      H1989   1.083       .  S
C1985      C1986   1.419       .  A
C1986      N1990   1.429       .  S
C1987      C1992   1.408       .  A
C1987      C1996   1.400       .  A
N1988      O2003   1.262       .  A
N1988      O2004   1.261       .  A
N1990      O2001   1.262       .  A
N1990      O2002   1.261       .  A
C1992      C1993   1.400       .  A
C1992      N1997   1.429       .  S
C1993      C1994   1.402       .  A
C1993      H1998   1.081       .  S
C1994      C1995   1.410       .  A
C1995      C1996   1.399       .  A
C1995      N1999   1.429       .  S
C1996      H2000   1.084       .  S
N1997      O2007   1.262   1_455  A
N1997      O2008   1.262       .  A
N1999      O2005   1.262       .  A
N1999      O2006   1.262       .  A
C2009      C2010   1.401       .  A
C2009      C2014   1.407       .  A
C2009      H2019   1.084       .  S
C2010      C2015   1.481   1_554  S
C2010      C2011   1.405       .  A
C2011      C2012   1.398       .  A
C2011      N2016   1.429       .  S
C2012      C2013   1.408       .  A
C2012      H2017   1.082       .  S
C2013      C2014   1.416       .  A
C2014      N2018   1.427       .  S
C2015      C2020   1.405       .  A
C2015      C2024   1.401       .  A
N2016      O2031   1.262   1_554  A
N2016      O2032   1.262   1_554  A
N2018      O2029   1.262       .  A
N2018      O2030   1.262       .  A
C2020      C2021   1.398       .  A
C2020      N2025   1.428       .  S
C2021      C2022   1.406       .  A
C2021      H2026   1.084       .  S
C2022      C2023   1.418       .  A
C2023      C2024   1.406       .  A
C2023      N2027   1.429       .  S
C2024      H2028   1.084       .  S
N2025      O2035   1.262       .  A
N2025      O2036   1.262       .  A
N2027      O2033   1.262       .  A
N2027      O2034   1.261       .  A
C2037      C2038   1.405       .  A
C2037      C2042   1.403       .  A
C2037      H2047   1.083       .  S
C2038      C2043   1.497       .  S
C2038      C2039   1.415       .  A
C2039      C2040   1.403       .  A
C2039      N2044   1.430       .  S
C2040      C2041   1.405       .  A
C2040      H2045   1.084       .  S
C2041      C2042   1.414       .  A
C2042      N2046   1.428       .  S
C2043      C2048   1.412       .  A
C2043      C2052   1.401       .  A
N2044      O2059   1.262       .  A
N2044      O2060   1.262       .  A
N2046      O2057   1.262       .  A
N2046      O2058   1.262       .  A
C2048      C2049   1.404       .  A
C2048      N2053   1.429       .  S
C2049      C2050   1.411       .  A
C2049      H2054   1.077       .  S
C2050      C2051   1.424       .  A
C2051      C2052   1.401       .  A
C2051      N2055   1.431       .  S
C2052      H2056   1.083       .  S
N2053      O2063   1.262       .  A
N2053      O2064   1.262       .  A
N2055      O2061   1.262       .  A
N2055      O2062   1.262       .  A
C2065      C2066   1.399       .  A
C2065      C2070   1.400       .  A
C2065      H2075   1.084       .  S
C2066      C2071   1.482       .  S
C2066      C2067   1.408       .  A
C2067      C2068   1.406       .  A
C2067      N2072   1.428       .  S
C2068      C2069   1.407       .  A
C2068      H2073   1.084       .  S
C2069      C2070   1.414       .  A
C2070      N2074   1.427       .  S
C2071      C2076   1.410       .  A
C2071      C2080   1.399       .  A
N2072      O2087   1.262       .  A
N2072      O2088   1.261       .  A
N2074      O2085   1.262       .  A
N2074      O2086   1.262       .  A
C2076      C2077   1.404       .  A
C2076      N2081   1.428       .  S
C2077      C2078   1.405       .  A
C2077      H2082   1.080       .  S
C2078      C2079   1.414       .  A
C2079      C2080   1.400       .  A
C2079      N2083   1.428       .  S
C2080      H2084   1.084       .  S
N2081      O2091   1.262       .  A
N2081      O2092   1.262       .  A
N2083      O2089   1.261       .  A
N2083      O2090   1.260       .  A
C2093      C2094   1.406       .  A
C2093      C2098   1.404       .  A
C2093      H2103   1.084       .  S
C2094      C2099   1.493       .  S
C2094      C2095   1.414       .  A
C2095      C2096   1.403       .  A
C2095      N2100   1.429       .  S
C2096      C2097   1.404       .  A
C2096      H2101   1.084       .  S
C2097      C2098   1.409       .  A
C2098      N2102   1.429       .  S
C2099      C2104   1.412       .  A
C2099      C2108   1.399       .  A
N2100      O2115   1.262       .  A
N2100      O2116   1.262       .  A
N2102      O2113   1.262       .  A
N2102      O2114   1.262       .  A
C2104      C2105   1.407       .  A
C2104      N2109   1.429       .  S
C2105      C2106   1.412       .  A
C2105      H2110   1.076       .  S
C2106      C2107   1.423       .  A
C2107      C2108   1.399       .  A
C2107      N2111   1.431       .  S
C2108      H2112   1.084       .  S
N2109      O2119   1.262       .  A
N2109      O2120   1.262       .  A
N2111      O2117   1.262       .  A
N2111      O2118   1.262       .  A
C2121      C2122   1.407       .  A
C2121      C2126   1.409       .  A
C2121      H2131   1.083       .  S
C2122      C2127   1.497       .  S
C2122      C2123   1.416       .  A
C2123      C2124   1.401       .  A
C2123      N2128   1.430       .  S
C2124      C2125   1.399       .  A
C2124      H2129   1.082       .  S
C2125      C2126   1.411       .  A
C2126      N2130   1.428       .  S
C2127      C2132   1.415       .  A
C2127      C2136   1.402       .  A
N2128      O2143   1.262       .  A
N2128      O2144   1.262       .  A
N2130      O2141   1.262       .  A
N2130      O2142   1.262       .  A
C2132      C2133   1.409       .  A
C2132      N2137   1.428       .  S
C2133      C2134   1.404       .  A
C2133      H2138   1.084       .  S
C2134      C2135   1.416       .  A
C2135      C2136   1.399       .  A
C2135      N2139   1.430       .  S
C2136      H2140   1.083       .  S
N2137      O2147   1.262       .  A
N2137      O2148   1.262       .  A
N2139      O2145   1.262       .  A
N2139      O2146   1.262       .  A
C2149      C2150   1.401       .  A
C2149      C2154   1.403       .  A
C2149      H2159   1.083       .  S
C2150      C2155   1.495       .  S
C2150      C2151   1.412       .  A
C2151      C2152   1.406       .  A
C2151      N2156   1.428       .  S
C2152      C2153   1.407       .  A
C2152      H2157   1.084       .  S
C2153      C2154   1.417       .  A
C2154      N2158   1.428       .  S
C2155      C2160   1.413       .  A
C2155      C2164   1.407       .  A
N2156      O2171   1.262       .  A
N2156      O2172   1.262       .  A
N2158      O2169   1.262       .  A
N2158      O2170   1.261       .  A
C2160      C2161   1.402       .  A
C2160      N2165   1.429       .  S
C2161      C2162   1.404       .  A
C2161      H2166   1.084       .  S
C2162      C2163   1.411       .  A
C2163      C2164   1.407       .  A
C2163      N2167   1.429       .  S
C2164      H2168   1.083       .  S
N2165      O2175   1.262       .  A
N2165      O2176   1.262       .  A
N2167      O2173   1.262       .  A
N2167      O2174   1.262       .  A
C2177      C2178   1.399       .  A
C2177      C2182   1.405       .  A
C2177      H2187   1.084       .  S
C2178      C2183   1.488       .  S
C2178      C2179   1.406       .  A
C2179      C2180   1.405       .  A
C2179      N2184   1.428       .  S
C2180      C2181   1.413       .  A
C2180      H2185   1.076       .  S
C2181      C2182   1.426       .  A
C2182      N2186   1.432       .  S
C2183      C2188   1.407       .  A
C2183      C2192   1.404       .  A
N2184      O2199   1.262       .  A
N2184      O2200   1.262       .  A
N2186      O2197   1.262       .  A
N2186      O2198   1.262       .  A
C2188      C2189   1.399       .  A
C2188      N2193   1.429       .  S
C2189      C2190   1.406       .  A
C2189      H2194   1.083       .  S
C2190      C2191   1.416       .  A
C2191      C2192   1.410       .  A
C2191      N2195   1.428       .  S
C2192      H2196   1.083       .  S
N2193      O2203   1.262       .  A
N2193      O2204   1.262       .  A
N2195      O2201   1.262       .  A
N2195      O2202   1.262       .  A
C2205      C2206   1.403       .  A
C2205      C2210   1.391       .  A
C2205      H2215   1.082       .  S
C2206      C2211   1.485   1_655  S
C2206      C2207   1.417       .  A
C2207      C2208   1.399       .  A
C2207      N2212   1.429       .  S
C2208      C2209   1.397       .  A
C2208      H2213   1.084       .  S
C2209      C2210   1.409       .  A
C2210      N2214   1.433       .  S
C2211      C2216   1.414       .  A
C2211      C2220   1.403       .  A
N2212      O2227   1.262       .  A
N2212      O2228   1.262       .  A
N2214      O2225   1.262       .  A
N2214      O2226   1.261       .  A
C2216      C2217   1.388       .  A
C2216      N2221   1.431       .  S
C2217      C2218   1.403       .  A
C2217      H2222   1.082       .  S
C2218      C2219   1.416       .  A
C2219      C2220   1.401       .  A
C2219      N2223   1.428       .  S
C2220      H2224   1.082       .  S
N2221      O2231   1.262       .  A
N2221      O2232   1.262       .  A
N2223      O2229   1.262       .  A
N2223      O2230   1.261       .  A
C2233      C2234   1.399       .  A
C2233      C2238   1.400       .  A
C2233      H2243   1.084       .  S
C2234      C2239   1.490       .  S
C2234      C2235   1.409       .  A
C2235      C2236   1.403       .  A
C2235      N2240   1.428       .  S
C2236      C2237   1.410       .  A
C2236      H2241   1.083       .  S
C2237      C2238   1.424       .  A
C2238      N2242   1.429       .  S
C2239      C2244   1.411       .  A
C2239      C2248   1.404       .  A
N2240      O2255   1.262       .  A
N2240      O2256   1.262       .  A
N2242      O2253   1.262       .  A
N2242      O2254   1.261       .  A
C2244      C2245   1.401       .  A
C2244      N2249   1.429       .  S
C2245      C2246   1.405       .  A
C2245      H2250   1.084       .  S
C2246      C2247   1.414       .  A
C2247      C2248   1.405       .  A
C2247      N2251   1.429       .  S
C2248      H2252   1.083       .  S
N2249      O2259   1.262       .  A
N2249      O2260   1.262       .  A
N2251      O2257   1.262       .  A
N2251      O2258   1.262       .  A
C2261      C2262   1.397       .  A
C2261      C2266   1.402       .  A
C2261      H2271   1.084       .  S
C2262      C2267   1.484       .  S
C2262      C2263   1.405       .  A
C2263      C2264   1.404       .  A
C2263      N2268   1.428       .  S
C2264      C2265   1.413       .  A
C2264      H2269   1.076       .  S
C2265      C2266   1.426       .  A
C2266      N2270   1.432       .  S
C2267      C2272   1.407       .  A
C2267      C2276   1.402       .  A
N2268      O2283   1.262       .  A
N2268      O2284   1.262       .  A
N2270      O2281   1.262       .  A
N2270      O2282   1.262       .  A
C2272      C2273   1.399       .  A
C2272      N2277   1.429       .  S
C2273      C2274   1.406       .  A
C2273      H2278   1.083       .  S
C2274      C2275   1.417       .  A
C2275      C2276   1.407       .  A
C2275      N2279   1.429       .  S
C2276      H2280   1.084       .  S
N2277      O2287   1.262       .  A
N2277      O2288   1.262       .  A
N2279      O2285   1.262       .  A
N2279      O2286   1.262       .  A
C2289      C2290   1.402       .  A
C2289      C2294   1.400       .  A
C2289      H2299   1.083       .  S
C2290      C2295   1.485   1_655  S
C2290      C2291   1.412       .  A
C2291      C2292   1.397       .  A
C2291      N2296   1.430       .  S
C2292      C2293   1.403       .  A
C2292      H2297   1.081       .  S
C2293      C2294   1.416       .  A
C2294      N2298   1.430       .  S
C2295      C2300   1.411       .  A
C2295      C2304   1.401       .  A
N2296      O2311   1.262       .  A
N2296      O2312   1.262       .  A
N2298      O2309   1.262       .  A
N2298      O2310   1.262       .  A
C2300      C2301   1.401       .  A
C2300      N2305   1.429       .  S
C2301      C2302   1.404       .  A
C2301      H2306   1.081       .  S
C2302      C2303   1.417       .  A
C2303      C2304   1.395       .  A
C2303      N2307   1.431       .  S
C2304      H2308   1.083       .  S
N2305      O2315   1.262       .  A
N2305      O2316   1.262       .  A
N2307      O2313   1.262       .  A
N2307      O2314   1.262       .  A
C2317      C2318   1.406       .  A
C2317      C2322   1.404       .  A
C2317      H2327   1.083       .  S
C2318      C2323   1.493       .  S
C2318      C2319   1.412       .  A
C2319      C2320   1.401       .  A
C2319      N2324   1.429       .  S
C2320      C2321   1.404       .  A
C2320      H2325   1.083       .  S
C2321      C2322   1.410       .  A
C2322      N2326   1.428       .  S
C2323      C2328   1.414       .  A
C2323      C2332   1.406       .  A
N2324      O2339   1.262       .  A
N2324      O2340   1.262       .  A
N2326      O2337   1.262       .  A
N2326      O2338   1.262       .  A
C2328      C2329   1.402       .  A
C2328      N2333   1.429       .  S
C2329      C2330   1.401       .  A
C2329      H2334   1.084       .  S
C2330      C2331   1.409       .  A
C2331      C2332   1.404       .  A
C2331      N2335   1.429       .  S
C2332      H2336   1.083       .  S
N2333      O2343   1.262       .  A
N2333      O2344   1.262       .  A
N2335      O2341   1.262       .  A
N2335      O2342   1.262       .  A
C2345      C2346   1.399       .  A
C2345      C2350   1.400       .  A
C2345      H2355   1.083       .  S
C2346      C2351   1.492       .  S
C2346      C2347   1.411       .  A
C2347      C2348   1.404       .  A
C2347      N2352   1.429       .  S
C2348      C2349   1.411       .  A
C2348      H2353   1.077       .  S
C2349      C2350   1.425       .  A
C2350      N2354   1.432       .  S
C2351      C2356   1.414       .  A
C2351      C2360   1.403       .  A
N2352      O2367   1.262       .  A
N2352      O2368   1.261       .  A
N2354      O2365   1.262       .  A
N2354      O2366   1.262       .  A
C2356      C2357   1.403       .  A
C2356      N2361   1.429       .  S
C2357      C2358   1.400       .  A
C2357      H2362   1.081       .  S
C2358      C2359   1.415       .  A
C2359      C2360   1.401       .  A
C2359      N2363   1.431       .  S
C2360      H2364   1.083       .  S
N2361      O2371   1.262       .  A
N2361      O2372   1.262       .  A
N2363      O2369   1.262       .  A
N2363      O2370   1.262       .  A
C2373      C2374   1.405       .  A
C2373      C2378   1.404       .  A
C2373      H2383   1.084       .  S
C2374      C2379   1.483       .  S
C2374      C2375   1.410       .  A
C2375      C2376   1.401       .  A
C2375      N2380   1.429       .  S
C2376      C2377   1.401       .  A
C2376      H2381   1.083       .  S
C2377      C2378   1.407       .  A
C2378      N2382   1.428       .  S
C2379      C2384   1.408       .  A
C2379      C2388   1.400       .  A
N2380      O2395   1.262       .  A
N2380      O2396   1.262       .  A
N2382      O2393   1.261       .  A
N2382      O2394   1.262       .  A
C2384      C2385   1.403       .  A
C2384      N2389   1.429       .  S
C2385      C2386   1.407       .  A
C2385      H2390   1.083       .  S
C2386      C2387   1.416       .  A
C2387      C2388   1.403       .  A
C2387      N2391   1.428       .  S
C2388      H2392   1.084       .  S
N2389      O2399   1.262       .  A
N2389      O2400   1.262       .  A
N2391      O2397   1.262       .  A
N2391      O2398   1.262       .  A
C2401      C2402   1.401       .  A
C2401      C2406   1.403       .  A
C2401      H2411   1.084       .  S
C2402      C2407   1.491       .  S
C2402      C2403   1.410       .  A
C2403      C2404   1.406       .  A
C2403      N2408   1.428       .  S
C2404      C2405   1.409       .  A
C2404      H2409   1.083       .  S
C2405      C2406   1.418       .  A
C2406      N2410   1.428       .  S
C2407      C2412   1.410       .  A
C2407      C2416   1.405       .  A
N2408      O2423   1.262       .  A
N2408      O2424   1.262       .  A
N2410      O2421   1.261       .  A
N2410      O2422   1.262       .  A
C2412      C2413   1.401       .  A
C2412      N2417   1.429       .  S
C2413      C2414   1.406       .  A
C2413      H2418   1.084       .  S
C2414      C2415   1.414       .  A
C2415      C2416   1.408       .  A
C2415      N2419   1.429       .  S
C2416      H2420   1.084       .  S
N2417      O2427   1.262       .  A
N2417      O2428   1.262       .  A
N2419      O2425   1.262       .  A
N2419      O2426   1.262       .  A
C2429      C2430   1.399       .  A
C2429      C2434   1.399       .  A
C2429      H2439   1.084       .  S
C2430      C2435   1.489       .  S
C2430      C2431   1.409       .  A
C2431      C2432   1.404       .  A
C2431      N2436   1.428       .  S
C2432      C2433   1.411       .  A
C2432      H2437   1.077       .  S
C2433      C2434   1.425       .  A
C2434      N2438   1.432       .  S
C2435      C2440   1.413       .  A
C2435      C2444   1.405       .  A
N2436      O2451   1.262       .  A
N2436      O2452   1.262       .  A
N2438      O2449   1.262       .  A
N2438      O2450   1.262       .  A
C2440      C2441   1.398       .  A
C2440      N2445   1.430       .  S
C2441      C2442   1.401       .  A
C2441      H2446   1.084       .  S
C2442      C2443   1.409       .  A
C2443      C2444   1.406       .  A
C2443      N2447   1.428       .  S
C2444      H2448   1.083       .  S
N2445      O2455   1.262       .  A
N2445      O2456   1.262       .  A
N2447      O2453   1.262       .  A
N2447      O2454   1.262       .  A
C2457      C2458   1.407       .  A
C2457      C2462   1.407       .  A
C2457      H2467   1.083       .  S
C2458      C2463   1.495       .  S
C2458      C2459   1.411       .  A
C2459      C2460   1.401       .  A
C2459      N2464   1.429       .  S
C2460      C2461   1.405       .  A
C2460      H2465   1.084       .  S
C2461      C2462   1.411       .  A
C2462      N2466   1.429       .  S
C2463      C2468   1.413       .  A
C2463      C2472   1.410       .  A
N2464      O2479   1.262       .  A
N2464      O2480   1.262       .  A
N2466      O2477   1.262       .  A
N2466      O2478   1.262       .  A
C2468      C2469   1.401       .  A
C2468      N2473   1.429       .  S
C2469      C2470   1.400       .  A
C2469      H2474   1.084       .  S
C2470      C2471   1.404       .  A
C2471      C2472   1.406       .  A
C2471      N2475   1.429       .  S
C2472      H2476   1.083       .  S
N2473      O2483   1.262       .  A
N2473      O2484   1.262       .  A
N2475      O2481   1.262       .  A
N2475      O2482   1.261       .  A
C2485      C2486   1.400       .  A
C2485      C2490   1.403       .  A
C2485      H2495   1.083       .  S
C2486      C2491   1.492       .  S
C2486      C2487   1.410       .  A
C2487      C2488   1.403       .  A
C2487      N2492   1.430       .  S
C2488      C2489   1.413       .  A
C2488      H2493   1.076       .  S
C2489      C2490   1.424       .  A
C2490      N2494   1.430       .  S
C2491      C2496   1.415       .  A
C2491      C2500   1.405       .  A
N2492      O2507   1.262       .  A
N2492      O2508   1.262       .  A
N2494      O2505   1.262       .  A
N2494      O2506   1.262       .  A
C2496      C2497   1.404       .  A
C2496      N2501   1.428       .  S
C2497      C2498   1.399       .  A
C2497      H2502   1.081       .  S
C2498      C2499   1.406       .  A
C2499      C2500   1.401       .  A
C2499      N2503   1.426       .  S
C2500      H2504   1.083       .  S
N2501      O2511   1.262       .  A
N2501      O2512   1.261       .  A
N2503      O2509   1.261       .  A
N2503      O2510   1.262       .  A
C2513      C2514   1.401       .  A
C2513      C2518   1.400       .  A
C2513      H2523   1.084       .  S
C2514      C2519   1.489       .  S
C2514      C2515   1.414       .  A
C2515      C2516   1.405       .  A
C2515      N2520   1.428       .  S
C2516      C2517   1.401       .  A
C2516      H2521   1.084       .  S
C2517      C2518   1.412       .  A
C2518      N2522   1.427       .  S
C2519      C2524   1.412       .  A
C2519      C2528   1.402       .  A
N2520      O2535   1.262       .  A
N2520      O2536   1.262       .  A
N2522      O2533   1.262       .  A
N2522      O2534   1.262       .  A
C2524      C2525   1.403       .  A
C2524      N2529   1.429       .  S
C2525      C2526   1.405       .  A
C2525      H2530   1.084       .  S
C2526      C2527   1.410       .  A
C2527      C2528   1.404       .  A
C2527      N2531   1.429       .  S
C2528      H2532   1.083       .  S
N2529      O2539   1.262       .  A
N2529      O2540   1.262       .  A
N2531      O2537   1.262       .  A
N2531      O2538   1.262       .  A
C2541      C2542   1.398       .  A
C2541      C2546   1.398       .  A
C2541      H2551   1.084       .  S
C2542      C2547   1.477       .  S
C2542      C2543   1.410       .  A
C2543      C2544   1.397       .  A
C2543      N2548   1.429       .  S
C2544      C2545   1.403       .  A
C2544      H2549   1.083       .  S
C2545      C2546   1.421       .  A
C2546      N2550   1.430       .  S
C2547      C2552   1.411   1_565  A
C2547      C2556   1.400   1_565  A
N2548      O2563   1.262       .  A
N2548      O2564   1.262       .  A
N2550      O2561   1.261       .  A
N2550      O2562   1.263       .  A
C2552      C2553   1.400       .  A
C2552      N2557   1.429       .  S
C2553      C2554   1.403       .  A
C2553      H2558   1.084       .  S
C2554      C2555   1.413       .  A
C2555      C2556   1.392       .  A
C2555      N2559   1.431       .  S
C2556      H2560   1.084   1_545  S
N2557      O2567   1.262       .  A
N2557      O2568   1.262       .  A
N2559      O2565   1.261       .  A
N2559      O2566   1.262       .  A
C2569      C2570   1.398       .  A
C2569      C2574   1.397       .  A
C2569      H2579   1.083       .  S
C2570      C2575   1.493       .  S
C2570      C2571   1.413       .  A
C2571      C2572   1.407       .  A
C2571      N2576   1.429       .  S
C2572      C2573   1.410       .  A
C2572      H2577   1.078       .  S
C2573      C2574   1.426       .  A
C2574      N2578   1.432       .  S
C2575      C2580   1.416       .  A
C2575      C2584   1.405       .  A
N2576      O2591   1.262       .  A
N2576      O2592   1.261       .  A
N2578      O2589   1.262       .  A
N2578      O2590   1.262       .  A
C2580      C2581   1.400       .  A
C2580      N2585   1.429       .  S
C2581      C2582   1.400       .  A
C2581      H2586   1.084       .  S
C2582      C2583   1.412       .  A
C2583      C2584   1.402       .  A
C2583      N2587   1.430       .  S
C2584      H2588   1.082       .  S
N2585      O2595   1.262       .  A
N2585      O2596   1.261       .  A
N2587      O2593   1.262       .  A
N2587      O2594   1.262       .  A
C2597      C2598   1.410       .  A
C2597      C2602   1.409       .  A
C2597      H2607   1.083       .  S
C2598      C2603   1.500       .  S
C2598      C2599   1.414       .  A
C2599      C2600   1.398       .  A
C2599      N2604   1.429       .  S
C2600      C2601   1.403       .  A
C2600      H2605   1.083       .  S
C2601      C2602   1.409       .  A
C2602      N2606   1.429       .  S
C2603      C2608   1.412       .  A
C2603      C2612   1.402       .  A
N2604      O2619   1.262       .  A
N2604      O2620   1.262       .  A
N2606      O2617   1.262       .  A
N2606      O2618   1.262       .  A
C2608      C2609   1.407       .  A
C2608      N2613   1.429       .  S
C2609      C2610   1.411       .  A
C2609      H2614   1.083       .  S
C2610      C2611   1.419       .  A
C2611      C2612   1.404       .  A
C2611      N2615   1.428       .  S
C2612      H2616   1.083       .  S
N2613      O2623   1.262       .  A
N2613      O2624   1.262       .  A
N2615      O2621   1.261       .  A
N2615      O2622   1.262       .  A
C2625      C2626   1.399       .  A
C2625      C2630   1.393       .  A
C2625      H2635   1.085       .  S
C2626      C2631   1.470       .  S
C2626      C2627   1.407       .  A
C2627      C2628   1.400       .  A
C2627      N2632   1.428       .  S
C2628      C2629   1.403       .  A
C2628      H2633   1.083       .  S
C2629      C2630   1.409       .  A
C2630      N2634   1.428       .  S
C2631      C2636   1.405   1_565  A
C2631      C2640   1.401   1_565  A
N2632      O2647   1.262       .  A
N2632      O2648   1.262       .  A
N2634      O2645   1.262       .  A
N2634      O2646   1.262       .  A
C2636      C2637   1.392       .  A
C2636      N2641   1.429   1_545  S
C2637      C2638   1.404       .  A
C2637      H2642   1.083       .  S
C2638      C2639   1.414       .  A
C2639      C2640   1.402       .  A
C2639      N2643   1.428       .  S
C2640      H2644   1.084   1_545  S
N2641      O2651   1.262       .  A
N2641      O2652   1.262       .  A
N2643      O2649   1.261       .  A
N2643      O2650   1.262       .  A
C2653      C2654   1.402       .  A
C2653      C2658   1.405       .  A
C2653      H2663   1.084       .  S
C2654      C2659   1.481       .  S
C2654      C2655   1.407       .  A
C2655      C2656   1.400       .  A
C2655      N2660   1.429       .  S
C2656      C2657   1.407       .  A
C2656      H2661   1.083       .  S
C2657      C2658   1.414       .  A
C2658      N2662   1.428       .  S
C2659      C2664   1.408       .  A
C2659      C2668   1.397       .  A
N2660      O2675   1.262       .  A
N2660      O2676   1.262       .  A
N2662      O2673   1.262       .  A
N2662      O2674   1.262       .  A
C2664      C2665   1.406       .  A
C2664      N2669   1.428       .  S
C2665      C2666   1.405       .  A
C2665      H2670   1.080       .  S
C2666      C2667   1.420       .  A
C2667      C2668   1.398       .  A
C2667      N2671   1.430       .  S
C2668      H2672   1.084       .  S
N2669      O2679   1.262       .  A
N2669      O2680   1.262       .  A
N2671      O2677   1.262       .  A
N2671      O2678   1.260       .  A
C2681      C2682   1.405       .  A
C2681      C2686   1.405       .  A
C2681      H2691   1.083       .  S
C2682      C2687   1.489       .  S
C2682      C2683   1.411       .  A
C2683      C2684   1.400       .  A
C2683      N2688   1.429       .  S
C2684      C2685   1.400       .  A
C2684      H2689   1.081       .  S
C2685      C2686   1.411       .  A
C2686      N2690   1.428       .  S
C2687      C2692   1.407       .  A
C2687      C2696   1.400       .  A
N2688      O2703   1.262       .  A
N2688      O2704   1.262       .  A
N2690      O2701   1.261       .  A
N2690      O2702   1.262       .  A
C2692      C2693   1.402       .  A
C2692      N2697   1.429       .  S
C2693      C2694   1.412       .  A
C2693      H2698   1.076       .  S
C2694      C2695   1.425       .  A
C2695      C2696   1.402       .  A
C2695      N2699   1.431       .  S
C2696      H2700   1.084       .  S
N2697      O2707   1.262       .  A
N2697      O2708   1.262       .  A
N2699      O2705   1.262       .  A
N2699      O2706   1.262       .  A
C2709      C2710   1.407       .  A
C2709      C2714   1.403       .  A
C2709      H2719   1.083       .  S
C2710      C2715   1.495       .  S
C2710      C2711   1.414       .  A
C2711      C2712   1.402       .  A
C2711      N2716   1.429       .  S
C2712      C2713   1.401       .  A
C2712      H2717   1.084       .  S
C2713      C2714   1.407       .  A
C2714      N2718   1.429       .  S
C2715      C2720   1.412       .  A
C2715      C2724   1.407       .  A
N2716      O2731   1.262       .  A
N2716      O2732   1.262       .  A
N2718      O2729   1.262       .  A
N2718      O2730   1.262       .  A
C2720      C2721   1.400       .  A
C2720      N2725   1.429       .  S
C2721      C2722   1.405       .  A
C2721      H2726   1.084       .  S
C2722      C2723   1.410       .  A
C2723      C2724   1.406       .  A
C2723      N2727   1.427       .  S
C2724      H2728   1.083       .  S
N2725      O2735   1.262       .  A
N2725      O2736   1.262       .  A
N2727      O2733   1.262       .  A
N2727      O2734   1.262       .  A
