geometry optimzed in LAMMPS
_audit_creation_date              2020-11-30 
_audit_creation_method            'lammps2cif' 
_symmetry_space_group_name_H-M    'P1' 
_symmetry_Int_Tables_number       1 
_symmetry_cell_setting            triclinic 
loop_ 
_symmetry_equiv_pos_as_xyz 
  x,y,z 
_cell_length_a                    38.69303467 
_cell_length_b                    38.69668923607986 
_cell_length_c                    38.69286660285707 
_cell_angle_alpha                 89.99933019358191 
_cell_angle_beta                  89.99980982290512 
_cell_angle_gamma                 89.99898434171779 
loop_ 
_atom_site_label 
_atom_site_type_symbol 
_atom_site_fract_x 
_atom_site_fract_y 
_atom_site_fract_z 
_atom_site_charge 
O1          O  0.93952597  0.99973270  0.94000829    -0.75500
C2          C  0.03065491  0.93498066  0.93513008     0.85500
O3          O  0.95129144  0.95137388  0.05455300    -0.76600
O4          O  0.07408914  0.97297658  0.03395847    -0.78100
O5          O  0.03351588  0.07460304  0.97373850    -0.77900
O6          O  0.95147442  0.05485462  0.95173317    -0.76600
Zn7        Zn  0.96993383  0.97079690  0.97063844     1.55700
O8          O  0.07414406  0.03353085  0.97324161    -0.78000
Cd9        Cd  0.98903056  0.04945395  0.98975931     1.59700
Cd10       Cd  0.98893150  0.98930469  0.04955276     1.59600
O11         O  0.97236503  0.07446637  0.03409169    -0.77900
O12         O  0.99894750  0.99947436  0.99964776    -1.88500
Cd13       Cd  0.04883454  0.98925458  0.98959373     1.59900
O14         O  0.97222782  0.03347139  0.07479406    -0.77900
O15         O  0.05382159  0.95139234  0.95178609    -0.76600
C16         C  0.93451608  0.93503822  0.03143364     0.86000
C17         C  0.93481313  0.03188079  0.93507231     0.85600
O18         O  0.99856100  0.94011782  0.94000613    -0.75500
C19         C  0.06454777  0.06472168  0.96895736     0.86400
O20         O  0.93923334  0.94022359  0.99931977    -0.75600
C21         C  0.96759204  0.06458542  0.06512438     0.86600
C22         C  0.06440027  0.96855221  0.06510455     0.86900
O23         O  0.03330392  0.97315929  0.07486570    -0.78000
O24         O  0.06000162  0.24897634  0.18970790    -0.75500
C25         C  0.06485430  0.18491240  0.28135808     0.85500
O26         O  0.94543493  0.20165625  0.20147904    -0.76600
O27         O  0.96599068  0.22329807  0.32423112    -0.78100
O28         O  0.02720167  0.32455121  0.28367296    -0.77900
O29         O  0.04886226  0.30424782  0.20156203    -0.76600
Zn30       Zn  0.02941054  0.22043152  0.22045892     1.55700
O31         O  0.02685297  0.28371124  0.32452520    -0.78000
Cd32       Cd  0.01095621  0.29935976  0.23927670     1.59700
Cd33       Cd  0.95068535  0.23971771  0.23900156     1.59600
O34         O  0.96683537  0.32477300  0.22266494    -0.77900
O35         O  0.00061663  0.24949796  0.24926641    -1.88500
Cd36       Cd  0.01050926  0.23940869  0.29921144     1.59900
O37         O  0.92583319  0.28408379  0.22225437    -0.77900
O38         O  0.04821731  0.20146008  0.30444371    -0.76600
C39         C  0.96850454  0.18484822  0.18510082     0.86000
C40         C  0.06518143  0.28106224  0.18485599     0.85600
O41         O  0.05999627  0.18990650  0.24924326    -0.75500
C42         C  0.03156286  0.31480479  0.31480905     0.86400
O43         O  0.00062408  0.18970161  0.19006950    -0.75600
C44         C  0.93574347  0.31514444  0.21777530     0.86600
C45         C  0.93485445  0.21909644  0.31441792     0.86900
O46         O  0.92520399  0.22382683  0.28331011    -0.78000
O47         O  0.74918923  0.18990752  0.56005433    -0.75500
C48         C  0.68480003  0.28106224  0.56523974     0.85500
O49         O  0.70142211  0.20165670  0.44549309    -0.76600
O50         O  0.72260864  0.32477352  0.46689304    -0.78100
O51         O  0.82446892  0.28371330  0.52690923    -0.77900
O52         O  0.80438912  0.20146211  0.54827539    -0.76600
Zn53       Zn  0.72040409  0.22043184  0.52946872     1.55700
O54         O  0.78361590  0.32455251  0.52725936    -0.78000
Cd55       Cd  0.79915564  0.23941007  0.51056668     1.59700
Cd56       Cd  0.73894504  0.23971784  0.45074297     1.59600
O57         O  0.82417477  0.22329881  0.46604784    -0.77900
O58         O  0.74921049  0.24949857  0.50067428    -1.88500
Cd59       Cd  0.73922012  0.29936037  0.51101419     1.59900
O60         O  0.78325336  0.22382616  0.42526148    -0.77900
O61         O  0.70150532  0.30424809  0.54892032    -0.76600
C62         C  0.68504491  0.18484833  0.46856309     0.86000
C63         C  0.78130407  0.18491413  0.56491243     0.85600
O64         O  0.68965288  0.24897643  0.56006020    -0.75500
C65         C  0.81475237  0.31480665  0.53161948     0.86400
O66         O  0.69001469  0.18970154  0.50068267    -0.75600
C67         C  0.81436132  0.21909634  0.43491172     0.86600
C68         C  0.71771960  0.31514504  0.43580096     0.86900
O69         O  0.72219860  0.28408425  0.42589049    -0.78000
O70         O  0.81003031  0.99992935  0.81032307    -0.75500
C71         C  0.71841430  0.93575614  0.81563302     0.85500
O72         O  0.79844549  0.95147598  0.69617808    -0.76600
O73         O  0.67550946  0.97312724  0.71636510    -0.78100
O74         O  0.71619979  0.07492145  0.77660264    -0.77900
O75         O  0.79832192  0.05506493  0.79842125    -0.76600
Zn76       Zn  0.77936046  0.97101577  0.77996819     1.55700
O77         O  0.67540218  0.03401393  0.77671651    -0.78000
Cd78       Cd  0.76060262  0.04968524  0.76055556     1.59700
Cd79       Cd  0.76075849  0.98943785  0.70091936     1.59600
O80         O  0.77715423  0.07466915  0.71616402    -0.77900
O81         O  0.75057746  0.99971206  0.75076622    -1.88500
Cd82       Cd  0.70064297  0.98963106  0.76069896     1.59900
O83         O  0.77742486  0.03359607  0.67555056    -0.77900
O84         O  0.69537170  0.95210862  0.79876144    -0.76600
C85         C  0.81491766  0.93501338  0.71943432     0.86000
C86         C  0.81494764  0.03206991  0.81509032     0.85600
O87         O  0.75054568  0.94071994  0.81081860    -0.75500
C88         C  0.68510265  0.06514478  0.78114637     0.86400
O89         O  0.80990932  0.94015530  0.75150521    -0.75600
C90         C  0.78196267  0.06475132  0.68515025     0.86600
C91         C  0.68530572  0.96859610  0.68526843     0.86900
O92         O  0.71643309  0.97317946  0.67559090    -0.78000
O93         O  0.31076180  0.94071905  0.25060046    -0.75500
C94         C  0.31503211  0.03206777  0.31500524     0.85500
O95         O  0.19612171  0.95147431  0.29850185    -0.76600
O96         O  0.21610594  0.07466749  0.27721105    -0.78100
O97         O  0.27665844  0.03401380  0.17545868    -0.77900
O98         O  0.29870422  0.95210825  0.19542653    -0.76600
Zn99       Zn  0.27991119  0.97101415  0.27941610     1.55700
O100        O  0.27654519  0.07492056  0.21625750    -0.78000
Cd101      Cd  0.26064149  0.98963040  0.20069871     1.59700
Cd102      Cd  0.20086247  0.98943605  0.26081478     1.59600
O103        O  0.21630790  0.97312651  0.17556512    -0.77900
O104        O  0.25070892  0.99971070  0.25063358    -1.88500
Cd105      Cd  0.26049776  0.04968377  0.26065985     1.59900
O106        O  0.17553425  0.97317724  0.21648924    -0.77900
O107        O  0.29836273  0.05506303  0.29838001    -0.76600
C108        C  0.21937813  0.93501130  0.31497336     0.86000
C109        C  0.31557608  0.93575565  0.21846880     0.85600
O110        O  0.31026555  0.99992736  0.31008690    -0.75500
C111        C  0.28108869  0.06514446  0.18515999     0.86400
O112        O  0.25144877  0.94015307  0.30996454    -0.75600
C113        C  0.18521161  0.96859465  0.18536166     0.86600
C114        C  0.18509240  0.06474940  0.28201907     0.86900
O115        O  0.17549312  0.03359414  0.27748109    -0.78000
O116        O  0.05951652  0.56094708  0.50020092    -0.75500
C117        C  0.96800660  0.56558829  0.56465326     0.85500
O118        O  0.04834587  0.44657994  0.54840348    -0.76600
O119        O  0.92518734  0.46654795  0.52659108    -0.78100
O120        O  0.96605832  0.52749384  0.42525462    -0.77900
O121        O  0.04820192  0.54872046  0.44505096    -0.76600
Zn122      Zn  0.02901143  0.53036724  0.52906756     1.55700
O123        O  0.92520190  0.52749472  0.46610937    -0.78000
Cd124      Cd  0.01034839  0.51099285  0.45037970     1.59700
Cd125      Cd  0.01050974  0.45130096  0.51056621     1.59600
O126        O  0.02653895  0.46654601  0.42524401    -0.77900
O127        O  0.00028124  0.50114443  0.50033637    -1.88500
Cd128      Cd  0.95032442  0.51099398  0.51040105     1.59900
O129        O  0.02690598  0.42592689  0.46631462    -0.77900
O130        O  0.94499447  0.54872230  0.54825409    -0.76600
C131        C  0.06480964  0.46984418  0.56486713     0.86000
C132        C  0.06459983  0.56558698  0.46806377     0.85600
O133        O  0.00014386  0.56094749  0.55957162    -0.75500
C134        C  0.93497982  0.53215866  0.43503119     0.86400
O135        O  0.05972243  0.50190953  0.55977952    -0.75600
C136        C  0.03127231  0.43551004  0.43512740     0.86600
C137        C  0.93507013  0.43551196  0.53132601     0.86900
O138        O  0.96625738  0.42592824  0.52696158    -0.78000
O139        O  0.43976434  0.31016644  0.75068612    -0.75500
C140        C  0.43480890  0.21883836  0.81496865     0.85500
O141        O  0.55432712  0.29850520  0.79842163    -0.76600
O142        O  0.53337224  0.17567308  0.77690858    -0.78100
O143        O  0.47307780  0.21620561  0.67534773    -0.77900
O144        O  0.45113740  0.29819679  0.69547391    -0.76600
Zn145      Zn  0.47038428  0.27967450  0.77946842     1.55700
O146        O  0.47278572  0.17549702  0.71632057    -0.78000
Cd147      Cd  0.48912600  0.26063472  0.70058776     1.59700
Cd148      Cd  0.54906772  0.26083556  0.76051328     1.59600
O149        O  0.53333547  0.27732888  0.67540217    -0.77900
O150        O  0.49916889  0.25074099  0.75052316    -1.88500
Cd151      Cd  0.48907141  0.20084900  0.76057777     1.59900
O152        O  0.57418433  0.27742473  0.71624747    -0.77900
O153        O  0.45130858  0.19573439  0.79834289    -0.76600
C154        C  0.53128329  0.31516053  0.81498836     0.86000
C155        C  0.43467470  0.31489422  0.71856194     0.85600
O156        O  0.43980465  0.25095226  0.81009382    -0.75500
C157        C  0.46842584  0.18513725  0.68515765     0.86400
O158        O  0.49915330  0.31031758  0.81003941    -0.75600
C159        C  0.56440781  0.28206003  0.68516697     0.86600
C160        C  0.56450725  0.18539232  0.78128474     0.86900
O161        O  0.57428361  0.21646514  0.77661036    -0.78000
O162        O  0.80999040  0.75141480  0.93989928    -0.75500
C163        C  0.71832783  0.81547538  0.93525305     0.85500
O164        O  0.79825107  0.79820481  0.05468947    -0.76600
O165        O  0.67524415  0.77680463  0.03352162    -0.78100
O166        O  0.71647756  0.67556017  0.97249105    -0.77900
O167        O  0.79871943  0.69609532  0.95140930    -0.76600
Zn168      Zn  0.77923882  0.77985778  0.97060023     1.55700
O169        O  0.67547942  0.71626417  0.97270607    -0.78000
Cd170      Cd  0.76071520  0.70084777  0.98907923     1.59700
Cd171      Cd  0.76039544  0.76050815  0.04930915     1.59600
O172        O  0.77695431  0.67544093  0.03336985    -0.77900
O173        O  0.75045555  0.75068485  0.99931871    -1.88500
Cd174      Cd  0.70053162  0.76062153  0.98920213     1.59900
O175        O  0.77656183  0.71606155  0.07443752    -0.77900
O176        O  0.69527893  0.79862154  0.95161276    -0.76600
C177        C  0.81474907  0.81497942  0.03168200     0.86000
C178        C  0.81517320  0.71934771  0.93492076     0.85600
O179        O  0.75045575  0.81064375  0.94021592    -0.75500
C180        C  0.68532900  0.68521637  0.96798764     0.86400
O181        O  0.80974721  0.81029646  0.99954209    -0.75600
C182        C  0.78128364  0.68502366  0.06456175     0.86600
C183        C  0.68495264  0.78143251  0.06462557     0.86900
O184        O  0.71604571  0.77690694  0.07442244    -0.78000
O185        O  0.31003827  0.25095242  0.93986407    -0.75500
C186        C  0.21850791  0.31489519  0.93473223     0.85500
O187        O  0.29836473  0.29850680  0.05438687    -0.76600
O188        O  0.17534639  0.27733174  0.03339303    -0.78100
O189        O  0.21626411  0.17549816  0.97284524    -0.77900
O190        O  0.29828616  0.19573470  0.95136690    -0.76600
Zn191      Zn  0.27941309  0.27967531  0.97044355     1.55700
O192        O  0.17529185  0.21620735  0.97313636    -0.78000
Cd193      Cd  0.26052146  0.20085014  0.98913021     1.59700
Cd194      Cd  0.26045663  0.26083717  0.04912694     1.59600
O195        O  0.27685237  0.17567455  0.03343124    -0.77900
O196        O  0.25046715  0.25074230  0.99922770    -1.88500
Cd197      Cd  0.20053228  0.26063657  0.98918381     1.59900
O198        O  0.27655342  0.21646666  0.07434303    -0.77900
O199        O  0.19541947  0.29819815  0.95119438    -0.76600
C200        C  0.31493186  0.31516177  0.03134310     0.86000
C201        C  0.31491245  0.21883840  0.93486770     0.85600
O202        O  0.25063176  0.31016731  0.93982288    -0.75500
C203        C  0.18510141  0.18513857  0.96848532     0.86400
O204        O  0.30998369  0.31031836  0.99921300    -0.75600
C205        C  0.28122803  0.18539376  0.06456654     0.86600
C206        C  0.18511046  0.28206255  0.06446588     0.86900
O207        O  0.21619055  0.27742657  0.07424307    -0.78000
O208        O  0.75085464  0.43987608  0.31028035    -0.75500
C209        C  0.81523191  0.43494782  0.21880541     0.85500
O210        O  0.79829539  0.55439646  0.29834994    -0.76600
O211        O  0.77690180  0.53340970  0.17542099    -0.78100
O212        O  0.67546782  0.47275153  0.21637847    -0.77900
O213        O  0.69561629  0.45141498  0.29865156    -0.76600
Zn214      Zn  0.77949044  0.47039819  0.27954551     1.55700
O215        O  0.71632145  0.47275184  0.17552349    -0.78000
Cd216      Cd  0.70067010  0.48909784  0.26071098     1.59700
Cd217      Cd  0.76050710  0.54916349  0.26056262     1.59600
O218        O  0.67536611  0.53341043  0.27695829    -0.77900
O219        O  0.75056045  0.49921001  0.25061609    -1.88500
Cd220      Cd  0.76065433  0.48909757  0.20072519     1.59900
O221        O  0.71612427  0.57434196  0.27685536    -0.77900
O222        O  0.79859422  0.45141422  0.19567050    -0.76600
C223        C  0.81489306  0.53133142  0.31494657     0.86000
C224        C  0.71875141  0.43494879  0.31528901     0.85600
O225        O  0.81022383  0.43987537  0.25090883    -0.75500
C226        C  0.68520789  0.46822722  0.18526444     0.86400
O227        O  0.81000071  0.49921282  0.31005436    -0.75600
C228        C  0.68503722  0.56454645  0.28144389     0.86600
C229        C  0.78138772  0.56454571  0.18509223     0.86900
O230        O  0.77679931  0.57434137  0.21617941    -0.78000
O231        O  0.43995160  0.94011655  0.49861705    -0.75500
C232        C  0.43501546  0.03188005  0.43486984     0.85500
O233        O  0.55449717  0.95137504  0.45134665    -0.76600
O234        O  0.53403476  0.07446710  0.47242246    -0.78100
O235        O  0.47318377  0.03352984  0.57420037    -0.77900
O236        O  0.45173148  0.95139088  0.55387794    -0.76600
Zn237      Zn  0.47058274  0.97079656  0.46999005     1.55700
O238        O  0.47368031  0.07460221  0.53357236    -0.78000
Cd239      Cd  0.48953773  0.98925410  0.54889093     1.59700
Cd240      Cd  0.54949658  0.98930518  0.48898773     1.59600
O241        O  0.53390267  0.97297751  0.57414575    -0.77900
O242        O  0.49959159  0.99947433  0.49900373    -1.88500
Cd243      Cd  0.48970262  0.04945383  0.48908691     1.59900
O244        O  0.57480944  0.97315941  0.53336012    -0.77900
O245        O  0.45167666  0.05485410  0.45153047    -0.76600
C246        C  0.53137802  0.93503939  0.43457101     0.86000
C247        C  0.43507581  0.93497908  0.53071108     0.85600
O248        O  0.43995157  0.99973201  0.43958299    -0.75500
C249        C  0.46889863  0.06472059  0.56460405     0.86400
O250        O  0.49926427  0.94022425  0.43928866    -0.75600
C251        C  0.56504861  0.96855289  0.56445676     0.86600
C252        C  0.56506756  0.06458649  0.46764996     0.86900
O253        O  0.57473746  0.03347240  0.47228533    -0.78000
O254        O  0.00042638  0.69036132  0.68935740    -0.75500
C255        C  0.06483939  0.78181289  0.68476870     0.85500
O256        O  0.04867148  0.70139676  0.80377377    -0.76600
O257        O  0.02715495  0.82458261  0.78385179    -0.78100
O258        O  0.92552809  0.78383959  0.72316841    -0.77900
O259        O  0.94530764  0.70177648  0.70161014    -0.76600
Zn260      Zn  0.02934572  0.72076998  0.72000410     1.55700
O261        O  0.96635751  0.82471127  0.72320932    -0.78000
Cd262      Cd  0.95073052  0.73950660  0.73943468     1.59700
Cd263      Cd  0.01098922  0.73933410  0.79909623     1.59600
O264        O  0.92571653  0.72311784  0.78384636    -0.77900
O265        O  0.00068695  0.74954191  0.74926353    -1.88500
Cd266      Cd  0.01070887  0.79950563  0.73946509     1.59900
O267        O  0.96677633  0.72292111  0.82448390    -0.77900
O268        O  0.04839880  0.80481301  0.70160620    -0.76600
C269        C  0.06503344  0.68483847  0.78051256     0.86000
C270        C  0.96827781  0.68535751  0.68471032     0.85600
O271        O  0.05985348  0.74966874  0.68946042    -0.75500
C272        C  0.93526667  0.81494165  0.71860438     0.86400
O273        O  0.05996039  0.68992223  0.74843945    -0.75600
C274        C  0.93561869  0.71841133  0.81487949     0.86600
C275        C  0.03197287  0.81469866  0.81487570     0.86900
O276        O  0.02755501  0.78352721  0.82447998    -0.78000
O277        O  0.44015854  0.81064347  0.25051051    -0.75500
C278        C  0.43486485  0.71934733  0.31522864     0.85500
O279        O  0.55463166  0.79820504  0.29830576    -0.76600
O280        O  0.53331395  0.67544054  0.27700846    -0.78100
O281        O  0.47264801  0.71626404  0.17553466    -0.77900
O282        O  0.45155658  0.79862172  0.19533352    -0.76600
Zn283      Zn  0.47054290  0.77985759  0.27929380     1.55700
O284        O  0.47243354  0.67556027  0.21653294    -0.78000
Cd285      Cd  0.48914527  0.76062112  0.20058636     1.59700
Cd286      Cd  0.54925177  0.76050797  0.26045045     1.59600
O287        O  0.53346474  0.77680322  0.17529857    -0.77900
O288        O  0.49926157  0.75068464  0.25051044    -1.88500
Cd289      Cd  0.48902305  0.70084755  0.26077023     1.59900
O290        O  0.57436496  0.77690646  0.21610069    -0.77900
O291        O  0.45135396  0.69609508  0.29877505    -0.76600
C292        C  0.53162419  0.81497982  0.31480375     0.86000
C293        C  0.43519630  0.81547540  0.21838237     0.85600
O294        O  0.43984225  0.75141450  0.31004544    -0.75500
C295        C  0.46792935  0.68521659  0.18538445     0.86400
O296        O  0.49948446  0.81029664  0.30980220    -0.75600
C297        C  0.56456847  0.78143155  0.18500741     0.86600
C298        C  0.56450554  0.68502369  0.28133832     0.86900
O299        O  0.57438061  0.71606173  0.27661715    -0.78000
O300        O  0.18940650  0.74966902  0.55991005    -0.75500
C301        C  0.18465643  0.68535611  0.46833520     0.85500
O302        O  0.30372000  0.70139643  0.54872712    -0.76600
O303        O  0.28379085  0.72311634  0.42577210    -0.78100
O304        O  0.22315551  0.82471036  0.46641385    -0.77900
O305        O  0.20155239  0.80481308  0.54845540    -0.76600
Zn306      Zn  0.21995032  0.72076980  0.52940258     1.55700
O307        O  0.22311285  0.78383821  0.42558444    -0.78000
Cd308      Cd  0.23941128  0.79950500  0.51076543     1.59700
Cd309      Cd  0.29904190  0.73933328  0.51104477     1.59600
O310        O  0.28379800  0.82458186  0.52721138    -0.77900
O311        O  0.24920936  0.74954104  0.50074320    -1.88500
Cd312      Cd  0.23937961  0.73950536  0.45078675     1.59900
O313        O  0.32442598  0.78352619  0.52761015    -0.77900
O314        O  0.20155547  0.70177498  0.44536462    -0.76600
C315        C  0.28045913  0.68483875  0.56509009     0.86000
C316        C  0.18471472  0.78181323  0.56489583     0.85600
O317        O  0.18930390  0.69036028  0.50048382    -0.75500
C318        C  0.21854963  0.81494053  0.43532309     0.86400
O319        O  0.24838606  0.68992287  0.56001748    -0.75600
C320        C  0.31482186  0.81469772  0.53202855     0.86600
C321        C  0.31482395  0.71840966  0.43567394     0.86900
O322        O  0.32442876  0.72291965  0.46683153    -0.78000
O323        O  0.31008702  0.43998660  0.75084034    -0.75500
C324        C  0.31493581  0.53153056  0.81498999     0.85500
O325        O  0.19557014  0.45134805  0.79823838    -0.76600
O326        O  0.21618022  0.57444583  0.77697423    -0.78100
O327        O  0.27719078  0.53346859  0.67551444    -0.77900
O328        O  0.29818208  0.45134810  0.69562246    -0.76600
Zn329      Zn  0.27949098  0.47060365  0.77954442     1.55700
O330        O  0.27692003  0.57444566  0.71623556    -0.78000
Cd331      Cd  0.26056869  0.48927752  0.70071513     1.59700
Cd332      Cd  0.20066125  0.48927714  0.76062444     1.59600
O333        O  0.21621330  0.47313862  0.67542353    -0.77900
O334        O  0.25055564  0.49939572  0.75061012    -1.88500
Cd335      Cd  0.26053632  0.54932660  0.76059130     1.59900
O336        O  0.17536901  0.47313757  0.71626955    -0.77900
O337        O  0.29832899  0.55458332  0.79838451    -0.76600
C338        C  0.21867253  0.43489401  0.81491650     0.86000
C339        C  0.31486113  0.43489413  0.71872428     0.85600
O340        O  0.31004389  0.49940668  0.81009691    -0.75500
C341        C  0.28169555  0.56459482  0.68519605     0.86400
O342        O  0.25078823  0.43998626  0.81014125    -0.75600
C343        C  0.18509962  0.46861630  0.68515527     0.86600
C344        C  0.18514113  0.56459469  0.78175011     0.86900
O345        O  0.17546002  0.53346828  0.77724628    -0.78000
O346        O  0.49932496  0.43987054  0.94000703    -0.75500
C347        C  0.43497509  0.43504601  0.03151158     0.85500
O348        O  0.45144110  0.55437658  0.95149627    -0.76600
O349        O  0.47272868  0.53394021  0.07445674    -0.78100
O350        O  0.57446705  0.47348042  0.03366660    -0.77900
O351        O  0.55450608  0.45174419  0.95154885    -0.76600
Zn352      Zn  0.47051186  0.47047346  0.97056922     1.55700
O353        O  0.53360953  0.47348099  0.07452463    -0.78000
Cd354      Cd  0.54925439  0.48962411  0.98927296     1.59700
Cd355      Cd  0.48924414  0.54947365  0.98930083     1.59600
O356        O  0.57439998  0.53394006  0.97278657    -0.77900
O357        O  0.49931922  0.49956445  0.99937626    -1.88500
Cd358      Cd  0.48921602  0.48962428  0.04931165     1.59900
O359        O  0.53353678  0.57476527  0.97286049    -0.77900
O360        O  0.45149227  0.45174446  0.05456374    -0.76600
C361        C  0.43489843  0.53123094  0.93495398     0.86000
C362        C  0.53145384  0.43504526  0.93503227     0.85600
O363        O  0.43994922  0.43987126  0.99938251    -0.75500
C364        C  0.56472428  0.46896182  0.06478159     0.86400
O365        O  0.43986892  0.49912371  0.93992544    -0.75600
C366        C  0.56463808  0.56503440  0.96821180     0.86600
C367        C  0.46815287  0.56503424  0.06469438     0.86900
O368        O  0.47280166  0.57476494  0.03359307    -0.78000
C369        C  0.34017975  0.54157668  0.84023399    -0.15600
C370        C  0.36201920  0.54567467  0.86207347     0.08500
C371        C  0.38781802  0.54549325  0.88787254     0.10400
C372        C  0.40963852  0.54119691  0.90969336    -0.16400
C373        C  0.29024586  0.65943973  0.59026377    -0.15600
C374        C  0.29441948  0.63755524  0.61203393     0.08500
C375        C  0.29461454  0.61176411  0.63782413     0.10400
C376        C  0.29083886  0.58994298  0.65973022    -0.16400
C377        C  0.45888112  0.65973263  0.15998298    -0.15600
C378        C  0.45514754  0.63792235  0.13803685     0.08500
C379        C  0.45522179  0.61224705  0.11209354     0.10400
C380        C  0.45905995  0.59046685  0.09013467    -0.16400
C381        C  0.34034593  0.70930589  0.41034345    -0.15600
C382        C  0.36221356  0.70547546  0.38847859     0.08500
C383        C  0.38794045  0.70552715  0.36260010     0.10400
C384        C  0.40968315  0.70958384  0.34065207    -0.16400
C385        C  0.15944555  0.79197126  0.59006546    -0.15600
C386        C  0.13759882  0.79625513  0.61185791     0.08500
C387        C  0.11180225  0.79625486  0.63765375     0.10400
C388        C  0.09000929  0.79197067  0.65949988    -0.16400
C389        C  0.09020744  0.65943907  0.79029899    -0.15600
C390        C  0.11197753  0.63755498  0.79447241     0.08500
C391        C  0.13776840  0.61176373  0.79466784     0.10400
C392        C  0.15967452  0.58994306  0.79089268    -0.16400
C393        C  0.54138403  0.90974707  0.40936621    -0.15600
C394        C  0.54570465  0.88788351  0.38760055     0.08500
C395        C  0.54587634  0.86203832  0.36185773     0.10400
C396        C  0.54174000  0.84018701  0.34004542    -0.16400
C397        C  0.40981132  0.90966427  0.54059662    -0.15600
C398        C  0.38799822  0.88778890  0.54473294     0.08500
C399        C  0.36221927  0.86194200  0.54487508     0.10400
C400        C  0.34033890  0.84006518  0.54111104    -0.16400
C401        C  0.65973173  0.45941819  0.15978865    -0.15600
C402        C  0.63783986  0.45590221  0.13789690     0.08500
C403        C  0.61203866  0.45615511  0.11209593     0.10400
C404        C  0.59017602  0.46001589  0.09023329    -0.16400
C405        C  0.58989163  0.65947363  0.29024445    -0.15600
C406        C  0.61175354  0.63757929  0.29398231     0.08500
C407        C  0.63759155  0.61179995  0.29402711     0.10400
C408        C  0.65951970  0.58996341  0.29034523    -0.16400
C409        C  0.20865523  0.40958616  0.84008899    -0.15600
C410        C  0.20438747  0.38771741  0.86185327     0.08500
C411        C  0.20430693  0.36189090  0.88760475     0.10400
C412        C  0.20847967  0.34007019  0.90943459    -0.16400
C413        C  0.34018858  0.34039466  0.04143211    -0.15600
C414        C  0.36202931  0.36220770  0.04570742     0.08500
C415        C  0.38786316  0.38798758  0.04576955     0.10400
C416        C  0.40972125  0.40979977  0.04157715    -0.16400
C417        C  0.65992736  0.65973238  0.95894099    -0.15600
C418        C  0.63798087  0.63792216  0.95520814     0.08500
C419        C  0.61203765  0.61224722  0.95528261     0.10400
C420        C  0.59007858  0.59046699  0.95912028    -0.16400
C421        C  0.58995372  0.79046193  0.15953243    -0.15600
C422        C  0.61179296  0.79425224  0.13764331     0.08500
C423        C  0.63758776  0.79425273  0.11184946     0.10400
C424        C  0.65947754  0.79046281  0.09001075    -0.16400
C425        C  0.79018989  0.65947348  0.08994758    -0.15600
C426        C  0.79392735  0.63757886  0.11180927     0.08500
C427        C  0.79397174  0.61179908  0.13764680     0.10400
C428        C  0.79028938  0.58996250  0.15957471    -0.16400
C429        C  0.91028858  0.70930773  0.84040183    -0.15600
C430        C  0.88842370  0.70547726  0.86226946     0.08500
C431        C  0.86254503  0.70552827  0.88799621     0.10400
C432        C  0.84059682  0.70958451  0.90973896    -0.16400
C433        C  0.54137194  0.34039329  0.84024529    -0.15600
C434        C  0.54564777  0.36220634  0.86208622     0.10100
C435        C  0.54571074  0.38798615  0.88792017     0.10400
C436        C  0.54151906  0.40979868  0.90977850    -0.16400
C437        C  0.45994607  0.09009024  0.59014069    -0.15600
C438        C  0.45613682  0.11191151  0.61205605     0.08500
C439        C  0.45599617  0.13770062  0.63787247     0.10400
C440        C  0.45960208  0.15961048  0.65973345    -0.16400
C441        C  0.34014239  0.20882538  0.90962231    -0.15600
C442        C  0.36195196  0.20459027  0.88779532     0.08500
C443        C  0.38773758  0.20459044  0.86200920     0.10400
C444        C  0.40956388  0.20882557  0.84019899    -0.16400
C445        C  0.40937777  0.34006924  0.70853279    -0.15600
C446        C  0.38754827  0.36189033  0.70435897     0.08500
C447        C  0.36179731  0.38771707  0.70443858     0.10400
C448        C  0.34003309  0.40958623  0.70870622    -0.16400
C449        C  0.09011471  0.46009863  0.59017255    -0.15600
C450        C  0.11196120  0.45605010  0.61201875     0.08500
C451        C  0.13776452  0.45596161  0.63782132     0.10400
C452        C  0.15963974  0.45969654  0.65969597    -0.16400
C453        C  0.90959792  0.54143191  0.40964807    -0.15600
C454        C  0.88775376  0.54541515  0.38780402     0.08500
C455        C  0.86196343  0.54546335  0.36201448     0.10400
C456        C  0.84013105  0.54135420  0.34018328    -0.16400
C457        C  0.15938016  0.66018932  0.45814366    -0.15600
C458        C  0.13752244  0.63840683  0.45381800     0.08500
C459        C  0.11168617  0.61263504  0.45373680     0.10400
C460        C  0.08983991  0.59081825  0.45794483    -0.16400
C461        C  0.95788701  0.59081987  0.58989302    -0.15600
C462        C  0.95367871  0.61263692  0.61173938     0.08500
C463        C  0.95375991  0.63840872  0.63757578     0.10400
C464        C  0.95808583  0.66019114  0.65943383    -0.16400
C465        C  0.34019559  0.04220667  0.34030838    -0.15600
C466        C  0.36198340  0.04642248  0.36218566     0.08500
C467        C  0.38778884  0.04636261  0.38799430     0.10400
C468        C  0.40966857  0.04206209  0.40976413    -0.16400
C469        C  0.28994351  0.09056314  0.15967153    -0.15600
C470        C  0.29368680  0.11237209  0.13775265     0.08500
C471        C  0.29376428  0.13810069  0.11190802     0.10400
C472        C  0.29010832  0.15994660  0.09001272    -0.16400
C473        C  0.20961592  0.90968231  0.34023340    -0.15600
C474        C  0.20558851  0.88787179  0.36210852     0.08500
C475        C  0.20559442  0.86214744  0.38797339     0.10400
C476        C  0.20946187  0.84034177  0.40988276    -0.16400
C477        C  0.34097773  0.91067277  0.20838217    -0.15600
C478        C  0.36282549  0.88886471  0.20413085     0.08500
C479        C  0.38851684  0.86294767  0.20410026     0.10400
C480        C  0.41017417  0.84094276  0.20831122    -0.16400
C481        C  0.84017773  0.90968444  0.70967168    -0.15600
C482        C  0.86205250  0.88787357  0.70564409     0.08500
C483        C  0.88791725  0.86214901  0.70564968     0.10400
C484        C  0.90982646  0.84034314  0.70951687    -0.16400
C485        C  0.58995347  0.15994519  0.79016524    -0.15600
C486        C  0.61184900  0.13809967  0.79382147     0.08500
C487        C  0.63769434  0.11237157  0.79374434     0.10400
C488        C  0.65961372  0.09056321  0.79000121    -0.16400
C489        C  0.65989133  0.95966601  0.65974667    -0.15600
C490        C  0.63806937  0.95597272  0.63779773     0.08500
C491        C  0.61233772  0.95598859  0.61190059     0.10400
C492        C  0.59050640  0.95968594  0.58996059    -0.16400
C493        C  0.70832827  0.91067291  0.84103445    -0.15600
C494        C  0.70407697  0.88886475  0.86288197     0.08500
C495        C  0.70404620  0.86294754  0.88857330     0.10400
C496        C  0.70825700  0.84094276  0.91023059    -0.16400
C497        C  0.65995817  0.15943833  0.45853997    -0.15600
C498        C  0.63820808  0.13752109  0.45438727     0.08500
C499        C  0.61242677  0.11170254  0.45437119     0.10400
C500        C  0.59053347  0.08989086  0.45832935    -0.16400
C501        C  0.84025791  0.34025007  0.54050445    -0.15600
C502        C  0.86213063  0.36215184  0.54415449     0.08500
C503        C  0.88789028  0.38801583  0.54406449     0.10400
C504        C  0.90970211  0.40995689  0.54028619    -0.16400
C505        C  0.70881455  0.40986206  0.34073381    -0.15600
C506        C  0.70466841  0.38819079  0.36273151     0.08500
C507        C  0.70459057  0.36251964  0.38866025     0.10400
C508        C  0.70847017  0.34066994  0.41053050    -0.16400
C509        C  0.65948274  0.29093261  0.59047444    -0.15600
C510        C  0.63758670  0.29507917  0.61224484     0.08500
C511        C  0.61170852  0.29517986  0.63796084     0.10400
C512        C  0.58980141  0.29130947  0.65977155    -0.16400
C513        C  0.79128064  0.15960847  0.59014683    -0.15600
C514        C  0.79531546  0.13772608  0.61196947     0.08500
C515        C  0.79521445  0.11189563  0.63776326     0.10400
C516        C  0.79123055  0.09005960  0.65964334    -0.16400
C517        C  0.15958516  0.09005765  0.29128628    -0.15600
C518        C  0.13770495  0.11189363  0.29526944     0.08500
C519        C  0.11191099  0.13772396  0.29536947     0.10400
C520        C  0.09008857  0.15960648  0.29133428    -0.16400
C521        C  0.84067635  0.40986098  0.20886807    -0.15600
C522        C  0.86267412  0.38818954  0.20472196     0.08500
C523        C  0.88860303  0.36251877  0.20464466     0.10400
C524        C  0.91047339  0.34066922  0.20852513    -0.16400
C525        C  0.09041620  0.29093300  0.15953903    -0.15600
C526        C  0.11218699  0.29508033  0.13764343     0.08500
C527        C  0.13790344  0.29518175  0.11176585     0.10400
C528        C  0.15971474  0.29131187  0.08985910    -0.16400
C529        C  0.04023273  0.40995419  0.40975988    -0.15600
C530        C  0.04401077  0.38801297  0.38794811     0.08500
C531        C  0.04409984  0.36214887  0.36218818     0.10400
C532        C  0.04044891  0.34024759  0.34031507    -0.16400
C533        C  0.83973169  0.21031339  0.40933561    -0.15600
C534        C  0.86155662  0.20665419  0.38740827     0.08500
C535        C  0.88735143  0.20665438  0.36161354     0.10400
C536        C  0.90927868  0.21031364  0.33978856    -0.16400
C537        C  0.83999097  0.84018620  0.04179775    -0.15600
C538        C  0.86180365  0.86203721  0.04593349     0.08500
C539        C  0.88754646  0.88788205  0.04576076     0.10400
C540        C  0.90931187  0.90974560  0.04143959    -0.16400
C541        C  0.15967699  0.15961183  0.95966254    -0.15600
C542        C  0.13781598  0.13770204  0.95605691     0.08500
C543        C  0.11199963  0.11191307  0.95619752     0.10400
C544        C  0.09008435  0.09009172  0.96000607    -0.16400
C545        C  0.04054064  0.90966628  0.90986498    -0.15600
C546        C  0.04467712  0.88779087  0.88805176     0.08500
C547        C  0.04481950  0.86194352  0.86227294     0.10400
C548        C  0.04105542  0.84006646  0.84039268    -0.16400
C549        C  0.15968988  0.95966434  0.15994706    -0.15600
C550        C  0.13774109  0.95597108  0.13812522     0.08500
C551        C  0.11184395  0.95598717  0.11239339     0.10400
C552        C  0.08990415  0.95968484  0.09056223    -0.16400
C553        C  0.84025037  0.04220897  0.84025412    -0.15600
C554        C  0.86212768  0.04642455  0.86204193     0.08500
C555        C  0.88793662  0.04636429  0.88784702     0.10400
C556        C  0.90970708  0.04206331  0.90972605    -0.16400
C557        C  0.95827046  0.08988955  0.09059040    -0.15600
C558        C  0.95431175  0.11170139  0.11248359     0.08500
C559        C  0.95432795  0.13752038  0.13826466     0.10400
C560        C  0.95848092  0.15943802  0.16001440    -0.16400
loop_ 
_geom_bond_atom_site_label_1 
_geom_bond_atom_site_label_2 
_geom_bond_distance 
_geom_bond_site_symmetry_2 
_ccdc_geom_bond_type 
O1           C17   1.272   1_565  A
O1           Zn7   2.011       .  S
C2           O18   1.272   1_455  A
C2           O15   1.274       .  A
C2          C545   1.436       .  S
O3           C16   1.273       .  A
O3          Cd10   2.077       .  S
O4           C22   1.274       .  A
O4          Cd13   2.073   1_554  S
O5           C19   1.274       .  A
O5           Cd9   2.072   1_455  S
O6           C17   1.273       .  A
O6           Cd9   2.079       .  S
Zn7          O18   2.010       .  S
Zn7          O20   2.011       .  S
Zn7          O12   1.937       .  S
O8           C19   1.274       .  A
O8          Cd13   2.072   1_545  S
Cd9          O11   2.072   1_556  S
Cd9          O12   2.009   1_545  S
Cd10         O14   2.072   1_565  S
Cd10         O23   2.073   1_655  S
Cd10         O12   2.008   1_554  S
O11          C21   1.274       .  A
O12         Cd13   2.008   1_655  S
Cd13         O15   2.079       .  S
O14          C21   1.273       .  A
C16          O20   1.272   1_554  A
C16         C540   1.435       .  S
C17         C556   1.436       .  S
C19         C544   1.435       .  S
C21         C557   1.435       .  S
C22          O23   1.274       .  A
C22         C552   1.436       .  S
O24          C40   1.272       .  A
O24         Zn30   2.009       .  S
C25          O41   1.272       .  A
C25          O38   1.274       .  A
C25         C520   1.436       .  S
O26          C39   1.273       .  A
O26         Cd33   2.078       .  S
O27          C45   1.274       .  A
O27         Cd36   2.072   1_655  S
O28          C42   1.274       .  A
O28         Cd32   2.073       .  S
O29          C40   1.273       .  A
O29         Cd32   2.078       .  S
Zn30         O41   2.009       .  S
Zn30         O43   2.009       .  S
Zn30         O35   1.936       .  S
O31          C42   1.274       .  A
O31         Cd36   2.073       .  S
Cd32         O34   2.072   1_455  S
Cd32         O35   2.008       .  S
Cd33         O37   2.072       .  S
Cd33         O46   2.071       .  S
Cd33         O35   2.008   1_655  S
O34          C44   1.274       .  A
O35         Cd36   2.008       .  S
Cd36         O38   2.080       .  S
O37          C44   1.273       .  A
C39          O43   1.272   1_655  A
C39         C560   1.435       .  S
C40         C525   1.435       .  S
C42         C532   1.436       .  S
C44         C524   1.435       .  S
C45          O46   1.273       .  A
C45         C536   1.435       .  S
O47          C63   1.272       .  A
O47         Zn53   2.009       .  S
C48          O64   1.272       .  A
C48          O61   1.273       .  A
C48         C509   1.435       .  S
O49          C62   1.273       .  A
O49         Cd56   2.078       .  S
O50          C68   1.274       .  A
O50         Cd59   2.072       .  S
O51          C65   1.274       .  A
O51         Cd55   2.073       .  S
O52          C63   1.274       .  A
O52         Cd55   2.080       .  S
Zn53         O64   2.009       .  S
Zn53         O66   2.009       .  S
Zn53         O58   1.936       .  S
O54          C65   1.274       .  A
O54         Cd59   2.073       .  S
Cd55         O57   2.072       .  S
Cd55         O58   2.008       .  S
Cd56         O60   2.071       .  S
Cd56         O69   2.072       .  S
Cd56         O58   2.008       .  S
O57          C67   1.274       .  A
O58         Cd59   2.008       .  S
Cd59         O61   2.078       .  S
O60          C67   1.273       .  A
C62          O66   1.272       .  A
C62         C497   1.435       .  S
C63         C513   1.436       .  S
C65         C501   1.436       .  S
C67         C533   1.435       .  S
C68          O69   1.273       .  A
C68         C508   1.435       .  S
O70          C86   1.272   1_565  A
O70         Zn76   2.010       .  S
C71          O87   1.272       .  A
C71          O84   1.273       .  A
C71         C493   1.435       .  S
O72          C85   1.273       .  A
O72         Cd79   2.078       .  S
O73          C91   1.274       .  A
O73         Cd82   2.073       .  S
O74          C88   1.274       .  A
O74         Cd78   2.071       .  S
O75          C86   1.273       .  A
O75         Cd78   2.078       .  S
Zn76         O87   2.011       .  S
Zn76         O89   2.009       .  S
Zn76         O81   1.937       .  S
O77          C88   1.273       .  A
O77         Cd82   2.071   1_545  S
Cd78         O80   2.072       .  S
Cd78         O81   2.008   1_545  S
Cd79         O83   2.073   1_565  S
Cd79         O92   2.073       .  S
Cd79         O81   2.008       .  S
O80          C90   1.274       .  A
O81         Cd82   2.008       .  S
Cd82         O84   2.078       .  S
O83          C90   1.274       .  A
C85          O89   1.272       .  A
C85         C481   1.435       .  S
C86         C553   1.435       .  S
C88         C488   1.434       .  S
C90         C516   1.436       .  S
C91          O92   1.274       .  A
C91         C489   1.436       .  S
O93         C109   1.272       .  A
O93         Zn99   2.011       .  S
C94         O110   1.272   1_545  A
C94         O107   1.273       .  A
C94         C465   1.435       .  S
O95         C108   1.273       .  A
O95        Cd102   2.078       .  S
O96         C114   1.274       .  A
O96        Cd105   2.072       .  S
O97         C111   1.273       .  A
O97        Cd101   2.071   1_545  S
O98         C109   1.273       .  A
O98        Cd101   2.078       .  S
Zn99        O110   2.010       .  S
Zn99        O112   2.009       .  S
Zn99        O104   1.937       .  S
O100        C111   1.274       .  A
O100       Cd105   2.071       .  S
Cd101       O103   2.073       .  S
Cd101       O104   2.008       .  S
Cd102       O106   2.073       .  S
Cd102       O115   2.073   1_565  S
Cd102       O104   2.008       .  S
O103        C113   1.274       .  A
O104       Cd105   2.008   1_565  S
Cd105       O107   2.078       .  S
O106        C113   1.274       .  A
C108        O112   1.272       .  A
C108        C473   1.435       .  S
C109        C477   1.435       .  S
C111        C469   1.434       .  S
C113        C549   1.436       .  S
C114        O115   1.274       .  A
C114        C517   1.436       .  S
O116        C132   1.272       .  A
O116       Zn122   2.010       .  S
C117        O133   1.272   1_655  A
C117        O130   1.273       .  A
C117        C461   1.435       .  S
O118        C131   1.274       .  A
O118       Cd125   2.078       .  S
O119        C137   1.274       .  A
O119       Cd128   2.073       .  S
O120        C134   1.273       .  A
O120       Cd124   2.071   1_655  S
O121        C132   1.273       .  A
O121       Cd124   2.078       .  S
Zn122       O133   2.010       .  S
Zn122       O135   2.009       .  S
Zn122       O127   1.937       .  S
O123        C134   1.273       .  A
O123       Cd128   2.071       .  S
Cd124       O126   2.073       .  S
Cd124       O127   2.008       .  S
Cd125       O129   2.073       .  S
Cd125       O138   2.073   1_455  S
Cd125       O127   2.008       .  S
O126        C136   1.274       .  A
O127       Cd128   2.008   1_455  S
Cd128       O130   2.078       .  S
O129        C136   1.274       .  A
C131        O135   1.272       .  A
C131        C449   1.435       .  S
C132        C460   1.435       .  S
C134        C453   1.435       .  S
C136        C529   1.436       .  S
C137        O138   1.274       .  A
C137        C504   1.436       .  S
O139        C155   1.272       .  A
O139       Zn145   2.009       .  S
C140        O156   1.272       .  A
C140        O153   1.273       .  A
C140        C444   1.434       .  S
O141        C154   1.273       .  A
O141       Cd148   2.078       .  S
O142        C160   1.273       .  A
O142       Cd151   2.070       .  S
O143        C157   1.274       .  A
O143       Cd147   2.073       .  S
O144        C155   1.273       .  A
O144       Cd147   2.077       .  S
Zn145       O156   2.010       .  S
Zn145       O158   2.011       .  S
Zn145       O150   1.936       .  S
O146        C157   1.273       .  A
O146       Cd151   2.072       .  S
Cd147       O149   2.072       .  S
Cd147       O150   2.008       .  S
Cd148       O152   2.071       .  S
Cd148       O161   2.071       .  S
Cd148       O150   2.007       .  S
O149        C159   1.273       .  A
O150       Cd151   2.008       .  S
Cd151       O153   2.076       .  S
O152        C159   1.273       .  A
C154        O158   1.272       .  A
C154        C433   1.436       .  S
C155        C445   1.434       .  S
C157        C440   1.435       .  S
C159        C512   1.435       .  S
C160        O161   1.273       .  A
C160        C485   1.434       .  S
O162        C178   1.272       .  A
O162       Zn168   2.010       .  S
C163        O179   1.272       .  A
C163        O176   1.273       .  A
C163        C496   1.435       .  S
O164        C177   1.273       .  A
O164       Cd171   2.078       .  S
O165        C183   1.273       .  A
O165       Cd174   2.071   1_554  S
O166        C180   1.274       .  A
O166       Cd170   2.074       .  S
O167        C178   1.274       .  A
O167       Cd170   2.079       .  S
Zn168       O179   2.010       .  S
Zn168       O181   2.009       .  S
Zn168       O173   1.936       .  S
O169        C180   1.274       .  A
O169       Cd174   2.072       .  S
Cd170       O172   2.073   1_556  S
Cd170       O173   2.008       .  S
Cd171       O175   2.072       .  S
Cd171       O184   2.072       .  S
Cd171       O173   2.008   1_554  S
O172        C182   1.274       .  A
O173       Cd174   2.008       .  S
Cd174       O176   2.078       .  S
O175        C182   1.274       .  A
C177        O181   1.272   1_554  A
C177        C537   1.435       .  S
C178        C432   1.435       .  S
C180        C417   1.436       .  S
C182        C425   1.436       .  S
C183        O184   1.273       .  A
C183        C424   1.435       .  S
O185        C201   1.272       .  A
O185       Zn191   2.010       .  S
C186        O202   1.272       .  A
C186        O199   1.273       .  A
C186        C412   1.434       .  S
O187        C200   1.273       .  A
O187       Cd194   2.078       .  S
O188        C206   1.273       .  A
O188       Cd197   2.072   1_554  S
O189        C203   1.273       .  A
O189       Cd193   2.072       .  S
O190        C201   1.273       .  A
O190       Cd193   2.076       .  S
Zn191       O202   2.009       .  S
Zn191       O204   2.011       .  S
Zn191       O196   1.936       .  S
O192        C203   1.274       .  A
O192       Cd197   2.073       .  S
Cd193       O195   2.070   1_556  S
Cd193       O196   2.008       .  S
Cd194       O198   2.071       .  S
Cd194       O207   2.071       .  S
Cd194       O196   2.007   1_554  S
O195        C205   1.273       .  A
O196       Cd197   2.008       .  S
Cd197       O199   2.077       .  S
O198        C205   1.273       .  A
C200        O204   1.272   1_554  A
C200        C413   1.436       .  S
C201        C441   1.434       .  S
C203        C541   1.435       .  S
C205        C472   1.434       .  S
C206        O207   1.273       .  A
C206        C528   1.435       .  S
O208        C224   1.272       .  A
O208       Zn214   2.009       .  S
C209        O225   1.272       .  A
C209        O222   1.273       .  A
C209        C521   1.435       .  S
O210        C223   1.273       .  A
O210       Cd217   2.078       .  S
O211        C229   1.274       .  A
O211       Cd220   2.072       .  S
O212        C226   1.274       .  A
O212       Cd216   2.072       .  S
O213        C224   1.273       .  A
O213       Cd216   2.078       .  S
Zn214       O225   2.009       .  S
Zn214       O227   2.008       .  S
Zn214       O219   1.936       .  S
O215        C226   1.274       .  A
O215       Cd220   2.072       .  S
Cd216       O218   2.072       .  S
Cd216       O219   2.008       .  S
Cd217       O221   2.073       .  S
Cd217       O230   2.073       .  S
Cd217       O219   2.008       .  S
O218        C228   1.274       .  A
O219       Cd220   2.008       .  S
Cd220       O222   2.078       .  S
O221        C228   1.274       .  A
C223        O227   1.271       .  A
C223        C456   1.434       .  S
C224        C505   1.435       .  S
C226        C401   1.435       .  S
C228        C408   1.436       .  S
C229        O230   1.274       .  A
C229        C428   1.436       .  S
O231        C247   1.272       .  A
O231       Zn237   2.010       .  S
C232        O248   1.272   1_545  A
C232        O245   1.273       .  A
C232        C468   1.436       .  S
O233        C246   1.273       .  A
O233       Cd240   2.077       .  S
O234        C252   1.274       .  A
O234       Cd243   2.072       .  S
O235        C249   1.274       .  A
O235       Cd239   2.072   1_545  S
O236        C247   1.274       .  A
O236       Cd239   2.079       .  S
Zn237       O248   2.011       .  S
Zn237       O250   2.011       .  S
Zn237       O242   1.937       .  S
O238        C249   1.274       .  A
O238       Cd243   2.072       .  S
Cd239       O241   2.073       .  S
Cd239       O242   2.008       .  S
Cd240       O244   2.073       .  S
Cd240       O253   2.072   1_565  S
Cd240       O242   2.008       .  S
O241        C251   1.274       .  A
O242       Cd243   2.009   1_565  S
Cd243       O245   2.079       .  S
O244        C251   1.274       .  A
C246        O250   1.272       .  A
C246        C393   1.435       .  S
C247        C397   1.436       .  S
C249        C437   1.435       .  S
C251        C492   1.436       .  S
C252        O253   1.273       .  A
C252        C500   1.435       .  S
O254        C270   1.272   1_455  A
O254       Zn260   2.011       .  S
C255        O271   1.272       .  A
C255        O268   1.273       .  A
C255        C388   1.435       .  S
O256        C269   1.273       .  A
O256       Cd263   2.077       .  S
O257        C275   1.274       .  A
O257       Cd266   2.073       .  S
O258        C272   1.273       .  A
O258       Cd262   2.071       .  S
O259        C270   1.273       .  A
O259       Cd262   2.078       .  S
Zn260       O271   2.010       .  S
Zn260       O273   2.010       .  S
Zn260       O265   1.937       .  S
O261        C272   1.274       .  A
O261       Cd266   2.072   1_655  S
Cd262       O264   2.072       .  S
Cd262       O265   2.008   1_655  S
Cd263       O267   2.072   1_455  S
Cd263       O276   2.074       .  S
Cd263       O265   2.008       .  S
O264        C274   1.273       .  A
O265       Cd266   2.008       .  S
Cd266       O268   2.077       .  S
O267        C274   1.274       .  A
C269        O273   1.272       .  A
C269        C389   1.435       .  S
C270        C464   1.435       .  S
C272        C484   1.435       .  S
C274        C429   1.435       .  S
C275        O276   1.274       .  A
C275        C548   1.436       .  S
O277        C293   1.272       .  A
O277       Zn283   2.010       .  S
C278        O294   1.272       .  A
C278        O291   1.274       .  A
C278        C384   1.435       .  S
O279        C292   1.273       .  A
O279       Cd286   2.078       .  S
O280        C298   1.274       .  A
O280       Cd289   2.073       .  S
O281        C295   1.274       .  A
O281       Cd285   2.072       .  S
O282        C293   1.273       .  A
O282       Cd285   2.078       .  S
Zn283       O294   2.010       .  S
Zn283       O296   2.009       .  S
Zn283       O288   1.936       .  S
O284        C295   1.274       .  A
O284       Cd289   2.074       .  S
Cd285       O287   2.071       .  S
Cd285       O288   2.008       .  S
Cd286       O290   2.072       .  S
Cd286       O299   2.072       .  S
Cd286       O288   2.008       .  S
O287        C297   1.273       .  A
O288       Cd289   2.008       .  S
Cd289       O291   2.079       .  S
O290        C297   1.273       .  A
C292        O296   1.272       .  A
C292        C396   1.435       .  S
C293        C480   1.435       .  S
C295        C377   1.436       .  S
C297        C421   1.435       .  S
C298        O299   1.274       .  A
C298        C405   1.436       .  S
O300        C316   1.272       .  A
O300       Zn306   2.010       .  S
C301        O317   1.272       .  A
C301        O314   1.273       .  A
C301        C457   1.435       .  S
O302        C315   1.273       .  A
O302       Cd309   2.077       .  S
O303        C321   1.273       .  A
O303       Cd312   2.072       .  S
O304        C318   1.274       .  A
O304       Cd308   2.072       .  S
O305        C316   1.273       .  A
O305       Cd308   2.077       .  S
Zn306       O317   2.011       .  S
Zn306       O319   2.010       .  S
Zn306       O311   1.937       .  S
O307        C318   1.273       .  A
O307       Cd312   2.071       .  S
Cd308       O310   2.073       .  S
Cd308       O311   2.008       .  S
Cd309       O313   2.074       .  S
Cd309       O322   2.072       .  S
Cd309       O311   2.008       .  S
O310        C320   1.274       .  A
O311       Cd312   2.008       .  S
Cd312       O314   2.078       .  S
O313        C320   1.274       .  A
C315        O319   1.272       .  A
C315        C373   1.435       .  S
C316        C385   1.435       .  S
C318        C476   1.435       .  S
C320        C400   1.436       .  S
C321        O322   1.274       .  A
C321        C381   1.435       .  S
O323        C339   1.272       .  A
O323       Zn329   2.010       .  S
C324        O340   1.272       .  A
C324        O337   1.273       .  A
C324        C369   1.435       .  S
O325        C338   1.273       .  A
O325       Cd332   2.076       .  S
O326        C344   1.274       .  A
O326       Cd335   2.072       .  S
O327        C341   1.273       .  A
O327       Cd331   2.071       .  S
O328        C339   1.273       .  A
O328       Cd331   2.076       .  S
Zn329       O340   2.009       .  S
Zn329       O342   2.010       .  S
Zn329       O334   1.936       .  S
O330        C341   1.274       .  A
O330       Cd335   2.072       .  S
Cd331       O333   2.072       .  S
Cd331       O334   2.008       .  S
Cd332       O336   2.072       .  S
Cd332       O345   2.071       .  S
Cd332       O334   2.008       .  S
O333        C343   1.273       .  A
O334       Cd335   2.008       .  S
Cd335       O337   2.078       .  S
O336        C343   1.273       .  A
C338        O342   1.272       .  A
C338        C409   1.435       .  S
C339        C448   1.435       .  S
C341        C376   1.435       .  S
C343        C452   1.435       .  S
C344        O345   1.273       .  A
C344        C392   1.435       .  S
O346        C362   1.272       .  A
O346       Zn352   2.011       .  S
C347        O363   1.272   1_554  A
C347        O360   1.273       .  A
C347        C416   1.436       .  S
O348        C361   1.273       .  A
O348       Cd355   2.077       .  S
O349        C367   1.273       .  A
O349       Cd358   2.072       .  S
O350        C364   1.274       .  A
O350       Cd354   2.072   1_554  S
O351        C362   1.273       .  A
O351       Cd354   2.079       .  S
Zn352       O363   2.011       .  S
Zn352       O365   2.010       .  S
Zn352       O357   1.937       .  S
O353        C364   1.274       .  A
O353       Cd358   2.072       .  S
Cd354       O356   2.072       .  S
Cd354       O357   2.008       .  S
Cd355       O359   2.074       .  S
Cd355       O368   2.074   1_556  S
Cd355       O357   2.008       .  S
O356        C366   1.273       .  A
O357       Cd358   2.008   1_556  S
Cd358       O360   2.079       .  S
O359        C366   1.274       .  A
C361        O365   1.272       .  A
C361        C372   1.435       .  S
C362        C436   1.436       .  S
C364        C404   1.435       .  S
C366        C420   1.436       .  S
C367        O368   1.274       .  A
C367        C380   1.436       .  S
C369        C370   1.206       .  T
C370        C371   1.412       .  S
C371        C372   1.206       .  T
C373        C374   1.205       .  T
C374        C375   1.411       .  S
C375        C376   1.205       .  T
C377        C378   1.206       .  T
C378        C379   1.412       .  S
C379        C380   1.206       .  T
C381        C382   1.206       .  T
C382        C383   1.412       .  S
C383        C384   1.206       .  T
C385        C386   1.205       .  T
C386        C387   1.412       .  S
C387        C388   1.205       .  T
C389        C390   1.205       .  T
C390        C391   1.411       .  S
C391        C392   1.205       .  T
C393        C394   1.205       .  T
C394        C395   1.412       .  S
C395        C396   1.205       .  T
C397        C398   1.206       .  T
C398        C399   1.413       .  S
C399        C400   1.206       .  T
C401        C402   1.206       .  T
C402        C403   1.412       .  S
C403        C404   1.206       .  T
C405        C406   1.206       .  T
C406        C407   1.412       .  S
C407        C408   1.206       .  T
C409        C410   1.205       .  T
C410        C411   1.411       .  S
C411        C412   1.205       .  T
C413        C414   1.206       .  T
C414        C415   1.412       .  S
C415        C416   1.206       .  T
C417        C418   1.206       .  T
C418        C419   1.412       .  S
C419        C420   1.206       .  T
C421        C422   1.205       .  T
C422        C423   1.411       .  S
C423        C424   1.205       .  T
C425        C426   1.206       .  T
C426        C427   1.412       .  S
C427        C428   1.206       .  T
C429        C430   1.206       .  T
C430        C431   1.412       .  S
C431        C432   1.206       .  T
C433        C434   1.206       .  T
C434        C435   1.412       .  S
C435        C436   1.206       .  T
C437        C438   1.206       .  T
C438        C439   1.412       .  S
C439        C440   1.206       .  T
C441        C442   1.205       .  T
C442        C443   1.411       .  S
C443        C444   1.205       .  T
C445        C446   1.205       .  T
C446        C447   1.411       .  S
C447        C448   1.205       .  T
C449        C450   1.206       .  T
C450        C451   1.412       .  S
C451        C452   1.206       .  T
C453        C454   1.205       .  T
C454        C455   1.411       .  S
C455        C456   1.205       .  T
C457        C458   1.206       .  T
C458        C459   1.412       .  S
C459        C460   1.206       .  T
C461        C462   1.206       .  T
C462        C463   1.412       .  S
C463        C464   1.206       .  T
C465        C466   1.206       .  T
C466        C467   1.412       .  S
C467        C468   1.206       .  T
C469        C470   1.205       .  T
C470        C471   1.411       .  S
C471        C472   1.205       .  T
C473        C474   1.205       .  T
C474        C475   1.412       .  S
C475        C476   1.205       .  T
C477        C478   1.206       .  T
C478        C479   1.412       .  S
C479        C480   1.206       .  T
C481        C482   1.205       .  T
C482        C483   1.412       .  S
C483        C484   1.205       .  T
C485        C486   1.205       .  T
C486        C487   1.411       .  S
C487        C488   1.205       .  T
C489        C490   1.206       .  T
C490        C491   1.413       .  S
C491        C492   1.206       .  T
C493        C494   1.206       .  T
C494        C495   1.412       .  S
C495        C496   1.206       .  T
C497        C498   1.206       .  T
C498        C499   1.412       .  S
C499        C500   1.206       .  T
C501        C502   1.206       .  T
C502        C503   1.413       .  S
C503        C504   1.206       .  T
C505        C506   1.206       .  T
C506        C507   1.412       .  S
C507        C508   1.206       .  T
C509        C510   1.205       .  T
C510        C511   1.412       .  S
C511        C512   1.205       .  T
C513        C514   1.206       .  T
C514        C515   1.413       .  S
C515        C516   1.206       .  T
C517        C518   1.206       .  T
C518        C519   1.413       .  S
C519        C520   1.206       .  T
C521        C522   1.206       .  T
C522        C523   1.412       .  S
C523        C524   1.206       .  T
C525        C526   1.205       .  T
C526        C527   1.412       .  S
C527        C528   1.205       .  T
C529        C530   1.206       .  T
C530        C531   1.413       .  S
C531        C532   1.206       .  T
C533        C534   1.205       .  T
C534        C535   1.411       .  S
C535        C536   1.205       .  T
C537        C538   1.205       .  T
C538        C539   1.412       .  S
C539        C540   1.205       .  T
C541        C542   1.206       .  T
C542        C543   1.412       .  S
C543        C544   1.206       .  T
C545        C546   1.206       .  T
C546        C547   1.413       .  S
C547        C548   1.206       .  T
C549        C550   1.206       .  T
C550        C551   1.413       .  S
C551        C552   1.206       .  T
C553        C554   1.206       .  T
C554        C555   1.412       .  S
C555        C556   1.206       .  T
C557        C558   1.206       .  T
C558        C559   1.412       .  S
C559        C560   1.206       .  T
