geometry optimzed in LAMMPS
_audit_creation_date              2020-11-30 
_audit_creation_method            'lammps2cif' 
_symmetry_space_group_name_H-M    'P1' 
_symmetry_Int_Tables_number       1 
_symmetry_cell_setting            triclinic 
loop_ 
_symmetry_equiv_pos_as_xyz 
  x,y,z 
_cell_length_a                    52.61795847 
_cell_length_b                    52.657961524096805 
_cell_length_c                    46.18490543353994 
_cell_angle_alpha                 89.94279639087654 
_cell_angle_beta                  89.97258898936924 
_cell_angle_gamma                 120.19140900026358 
loop_ 
_atom_site_label 
_atom_site_type_symbol 
_atom_site_fract_x 
_atom_site_fract_y 
_atom_site_fract_z 
_atom_site_charge 
C1          C  0.28535841  0.27935274  0.00028181     0.03400
C2          C  0.29594887  0.29174389  0.02778788    -0.12700
C3          C  0.32286213  0.31810206  0.03056160     0.00900
C4          C  0.33904612  0.33223662  0.50565167    -0.11200
C5          C  0.32865981  0.32052676  0.47808105     0.03400
C6          C  0.30184724  0.29408597  0.47558560    -0.10600
H7          H  0.28305167  0.28131152  0.04699449     0.09000
H8          H  0.36002352  0.35236567  0.50779987     0.06600
H9          H  0.29365754  0.28506811  0.45430922     0.06400
C10         C  0.69360246  0.68632801  0.00140550     0.03400
C11         C  0.67780233  0.67213405  0.02659794    -0.12700
C12         C  0.65230567  0.64443814  0.02502866     0.00900
C13         C  0.64282983  0.63067878  0.49808261    -0.11200
C14         C  0.65839004  0.64432809  0.47266755     0.03400
C15         C  0.68400056  0.67207932  0.47453863    -0.10600
H16         H  0.68528096  0.68267336  0.04747479     0.09000
H17         H  0.62299731  0.60935042  0.49689765     0.06600
H18         H  0.69629855  0.68274294  0.45509708     0.06400
N19         N  0.49275708  0.48354971  0.29517115    -0.36300
N20         N  0.52889018  0.52151898  0.24881576    -0.56800
N21         N  0.48814362  0.47912564  0.20691071    -0.36300
N22         N  0.45061987  0.44256534  0.25336089    -0.56800
C23         C  0.51148916  0.50771223  0.31047817     0.27300
C24         C  0.46995758  0.46630705  0.31278943     0.27300
C25         C  0.50472778  0.50236974  0.18947530     0.27300
C26         C  0.46360427  0.46053193  0.19194663     0.27300
C27         C  0.54740844  0.53510488  0.27116374     0.35900
C28         C  0.54460842  0.53319827  0.22436081     0.35900
C29         C  0.43930793  0.42661973  0.27772510     0.35900
C30         C  0.43674235  0.42423911  0.23101967     0.35900
C31         C  0.50050993  0.50554408  0.33828831    -0.21600
C32         C  0.47426738  0.47953234  0.33966833    -0.21600
C33         C  0.49061851  0.49843059  0.16309987    -0.21600
C34         C  0.46469939  0.47203940  0.16465229    -0.21600
C35         C  0.57487681  0.55588625  0.26084126    -0.22600
C36         C  0.57314649  0.55456539  0.23118648    -0.22600
C37         C  0.41789515  0.39812507  0.27088547    -0.22600
C38         C  0.41633147  0.39658641  0.24123444    -0.22600
C39         C  0.53924376  0.53037795  0.30068988    -0.18000
C40         C  0.44651619  0.43797020  0.30604005    -0.18000
C41         C  0.44101663  0.43270722  0.20162644    -0.18000
C42         C  0.53307708  0.52613821  0.19600174    -0.18000
H43         H  0.51043545  0.52070526  0.35608721     0.14900
H44         H  0.46026840  0.47104751  0.35856712     0.14900
H45         H  0.49834201  0.51293496  0.14451420     0.14900
H46         H  0.44858211  0.46232979  0.14752563     0.14900
H47         H  0.59408759  0.57072699  0.27330198     0.13200
H48         H  0.59081799  0.56804433  0.21637075     0.13200
H49         H  0.40455674  0.38040073  0.28570758     0.13200
H50         H  0.40160704  0.37740557  0.22868047     0.13200
H51         H  0.49708813  0.47739379  0.27527136     0.26500
H52         H  0.49484339  0.47459031  0.22642097     0.26500
C53         C  0.69376341  0.99093121  0.99644841     0.03400
C54         C  0.67982730  0.99247815  0.47109122    -0.12700
C55         C  0.65339338  0.99281275  0.47255252     0.00900
C56         C  0.64056311  0.99110570  0.99958642    -0.11200
C57         C  0.65391871  0.98942476  0.02520334     0.03400
C58         C  0.68078135  0.98970656  0.02356195    -0.10600
H59         H  0.68950019  0.99330940  0.45013530     0.09000
H60         H  0.61993971  0.99101418  0.00069473     0.06600
H61         H  0.69142665  0.98881824  0.04329415     0.06400
C62         C  0.29037218  0.00182889  0.00216562     0.03400
C63         C  0.30584411  0.00324685  0.02736377    -0.12700
C64         C  0.33181567  0.00217863  0.02580949     0.00900
C65         C  0.34283719  0.00057411  0.99869298    -0.11200
C66         C  0.32775475  0.99914368  0.47313012     0.03400
C67         C  0.30162104  0.00027882  0.47497279    -0.10600
H68         H  0.29747751  0.00497758  0.04827416     0.09000
H69         H  0.36311350  0.00000606  0.99753684     0.06600
H70         H  0.28944319  0.99870204  0.45549816     0.06400
N71         N  0.49003633  0.98984712  0.20489665    -0.36300
N72         N  0.44957478  0.99137065  0.24831868    -0.56800
N73         N  0.48474417  0.98733726  0.29384260    -0.36300
N74         N  0.52683168  0.98877700  0.25038545    -0.56800
C75         C  0.47236277  0.99487746  0.18753294     0.27300
C76         C  0.51317986  0.99358190  0.18866815     0.27300
C77         C  0.46659281  0.99311880  0.30981761     0.27300
C78         C  0.50749978  0.99205707  0.31103407     0.27300
C79         C  0.43440601  0.98933552  0.22404998     0.35900
C80         C  0.43181645  0.98834007  0.27084340     0.35900
C81         C  0.54129086  0.98560264  0.22767255     0.35900
C82         C  0.53859516  0.98455692  0.27461319     0.35900
C83         C  0.48408780  0.00137663  0.15978735    -0.21600
C84         C  0.50966486  0.00039905  0.16045346    -0.21600
C85         C  0.47761557  0.00082447  0.33768313    -0.21600
C86         C  0.50344637  0.00032011  0.33840672    -0.21600
C87         C  0.40703124  0.98539609  0.23121506    -0.22600
C88         C  0.40543576  0.98485184  0.26084938    -0.22600
C89         C  0.56263590  0.97969589  0.23760568    -0.22600
C90         C  0.56082651  0.97887724  0.26728804    -0.22600
C91         C  0.44519352  0.99240466  0.19546680    -0.18000
C92         C  0.53661724  0.98961695  0.19819955    -0.18000
C93         C  0.53125809  0.98795956  0.30329035    -0.18000
C94         C  0.43984875  0.99067746  0.30029498    -0.18000
H95         H  0.47497449  0.00597201  0.14082836     0.14900
H96         H  0.52373300  0.00393106  0.14199781     0.14900
H97         H  0.46814323  0.00629837  0.35572464     0.14900
H98         H  0.51759361  0.00538987  0.35709518     0.14900
H99         H  0.39004819  0.98343016  0.21661516     0.13200
H100        H  0.38708488  0.98252261  0.27353910     0.13200
H101        H  0.57815800  0.97663126  0.22488622     0.13200
H102        H  0.57468350  0.97505343  0.28183727     0.13200
H103        H  0.48491000  0.98155722  0.22561964     0.26500
H104        H  0.48046448  0.97779215  0.27353720     0.26500
C105        C  0.98238334  0.27885110  0.99913647     0.03400
C106        C  0.97968674  0.28953121  0.47207285    -0.12700
C107        C  0.97764587  0.31506583  0.47025133     0.00900
C108        C  0.97796424  0.32970278  0.99574957    -0.11200
C109        C  0.98072483  0.31947146  0.02299405     0.03400
C110        C  0.98312849  0.29409068  0.02442851    -0.10600
H111        H  0.97909497  0.27795088  0.45247165     0.09000
H112        H  0.97600597  0.34919239  0.99430376     0.06600
H113        H  0.98545572  0.28604542  0.04526857     0.06400
C114        C  0.97846507  0.68560823  0.99888939     0.03400
C115        C  0.97678557  0.66955333  0.47394319    -0.12700
C116        C  0.97321699  0.64137936  0.47606807     0.00900
C117        C  0.97068742  0.62896193  0.00355110    -0.11200
C118        C  0.97164592  0.64418387  0.02883226     0.03400
C119        C  0.97590793  0.67271497  0.02634251    -0.10600
H120        H  0.97843975  0.67907231  0.45276908     0.09000
H121        H  0.96823069  0.60732079  0.00526645     0.06600
H122        H  0.97713848  0.68481551  0.04574836     0.06400
N123        N  0.97578447  0.48260952  0.20529258    -0.36300
N124        N  0.97181692  0.51735606  0.25232321    -0.56800
N125        N  0.97069423  0.47513086  0.29386603    -0.36300
N126        N  0.97118799  0.43859285  0.24685431    -0.56800
C127        C  0.97152870  0.50206741  0.18989966     0.27300
C128        C  0.97174813  0.46077880  0.18702894     0.27300
C129        C  0.96520128  0.49213694  0.31176760     0.27300
C130        C  0.96504555  0.45072017  0.30880966     0.27300
C131        C  0.97587218  0.53579558  0.23014030     0.35900
C132        C  0.97406166  0.53220678  0.27693573     0.35900
C133        C  0.97641576  0.42754961  0.22264466     0.35900
C134        C  0.97399738  0.42376335  0.26937431     0.35900
C135        C  0.96523730  0.49271164  0.16137717    -0.21600
C136        C  0.96544422  0.46674711  0.15955952    -0.21600
C137        C  0.95618751  0.47842722  0.33853027    -0.21600
C138        C  0.95599989  0.45228628  0.33662425    -0.21600
C139        C  0.98019479  0.56231297  0.24068034    -0.22600
C140        C  0.97902566  0.56004197  0.27030267    -0.22600
C141        C  0.98189734  0.40516412  0.22980153    -0.22600
C142        C  0.98043496  0.40282011  0.25940790    -0.22600
C143        C  0.97419354  0.52859808  0.20045496    -0.18000
C144        C  0.97498722  0.43634680  0.19404873    -0.18000
C145        C  0.96976211  0.42802867  0.29877443    -0.18000
C146        C  0.96997200  0.52051358  0.30527141    -0.18000
H147        H  0.96104396  0.50352708  0.14361617     0.14900
H148        H  0.96147274  0.45378900  0.14014467     0.14900
H149        H  0.95068130  0.48650758  0.35766282     0.14900
H150        H  0.95027905  0.43643899  0.35393308     0.14900
H151        H  0.98355642  0.58123517  0.22831872     0.13200
H152        H  0.98115724  0.57685375  0.28520304     0.13200
H153        H  0.98645464  0.39186197  0.21522090     0.13200
H154        H  0.98364517  0.38738332  0.27212491     0.13200
H155        H  0.98398471  0.48558903  0.22616566     0.26500
H156        H  0.98121691  0.48149396  0.27400444     0.26500
O157        O  0.02280229  0.03581723  0.02412135    -0.88000
C158        C  0.96224028  0.01263845  0.45973791     0.88000
Mg159      Mg  0.05713197  0.02514957  0.02254048     1.58100
O160        O  0.93594697  0.97064192  0.02370469    -0.87800
O161        O  0.98672558  0.02956131  0.05232085    -0.75100
C162        C  0.99127980  0.88334314  0.48887630     0.93100
O163        O  0.03114388  0.02968256  0.45610319    -0.74900
O164        O  0.01592516  0.90700834  0.48634405    -0.82400
Mg165      Mg  0.01755245  0.05595445  0.48567315     1.58000
C166        C  0.88441493  0.87921172  0.01597151     0.93000
O167        O  0.00581499  0.08707540  0.00966099    -0.80700
H168        H  0.92853374  0.96757518  0.06637715    -0.06000
C169        C  0.96035977  0.93347364  0.45928111     0.87900
O170        O  0.03082424  0.98483402  0.05188216    -0.75200
O171        O  0.97248943  0.02171991  0.48406514    -0.87900
O172        O  0.88505343  0.90285739  0.00850904    -0.80800
C173        C  0.88115049  0.98206114  0.48928578     0.93100
C174        C  0.98241762  0.08724219  0.01657154     0.92900
Mg175      Mg  0.95606826  0.91428728  0.02141083     1.58000
O176        O  0.96797384  0.88352087  0.49629201    -0.80700
O177        O  0.94241666  0.94042765  0.05120084    -0.74900
O178        O  0.90456993  0.00454445  0.49816432    -0.80800
O179        O  0.06521939  0.09222192  0.48725837    -0.82500
O180        O  0.07086051  0.96717256  0.00882391    -0.80800
C181        C  0.93504076  0.95980450  0.04771570     0.87400
O182        O  0.00158121  0.94842153  0.02361011    -0.87900
O183        O  0.95091480  0.93490517  0.48334256    -0.88000
O184        O  0.98703988  0.94053532  0.45555472    -0.75100
Mg185      Mg  0.94692377  0.01590438  0.02253690     1.58000
O186        O  0.88000471  0.95754919  0.48536059    -0.82500
H187        H  0.02813699  0.04352120  0.06669383    -0.06200
O188        O  0.03760416  0.99972442  0.48386740    -0.87700
H189        H  0.04485342  0.00231421  0.44119133    -0.06000
H190        H  0.00383506  0.94324641  0.06624437    -0.06200
C191        C  0.03845009  0.01030162  0.45975976     0.87400
C192        C  0.01343298  0.03691060  0.04833579     0.87900
C193        C  0.01183982  0.95796278  0.04785929     0.88000
H194        H  0.94572988  0.92664010  0.44085720    -0.06200
O195        O  0.94304577  0.98593841  0.45540355    -0.75200
Mg196      Mg  0.02726785  0.95467045  0.48505618     1.58000
H197        H  0.97048888  0.02759663  0.44155170    -0.06200
C198        C  0.08884923  0.09154879  0.49066964     0.93000
O199        O  0.09343797  0.01435278  0.02108077    -0.82400
C200        C  0.09383950  0.99072003  0.01690482     0.93000
O201        O  0.95823959  0.06347986  0.02060538    -0.82400
Mg202      Mg  0.91643730  0.94579742  0.48461394     1.58200
O203        O  0.08844126  0.06806880  0.49831741    -0.80700
O204        O  0.90795179  0.87826891  0.01935787    -0.82400
C205        C  0.96219872  0.80130421  0.48072055    -0.27300
C206        C  0.98753309  0.79969302  0.48655275     0.02300
C207        C  0.01453917  0.82592249  0.99028193     0.30400
C208        C  0.01567902  0.85307127  0.98936483    -0.19100
C209        C  0.99004176  0.85468534  0.48509249    -0.28500
C210        C  0.96326536  0.82842910  0.47994740     0.44400
C211        C  0.98537022  0.77058956  0.48981838     0.05600
O212        O  0.03977067  0.82523151  0.99598041    -0.57000
H213        H  0.03653194  0.87283323  0.99340646     0.18600
O214        O  0.93785328  0.82889445  0.47469847    -0.63700
H215        H  0.94137432  0.78136912  0.47712762     0.17000
C216        C  0.96598546  0.74996303  0.01014695     0.29300
C217        C  0.96445193  0.72276189  0.01326095    -0.24600
C218        C  0.98183978  0.71537439  0.49610139    -0.23900
C219        C  0.00151374  0.73626526  0.47591362     0.40700
C220        C  0.00305138  0.76348284  0.47287878    -0.26400
O221        O  0.94908585  0.75658073  0.02771639    -0.58200
H222        H  0.94911502  0.70715835  0.02880859     0.16300
O223        O  0.01950888  0.73047838  0.45911351    -0.59700
H224        H  0.01806549  0.77909566  0.45712932     0.14800
H225        H  0.93739669  0.83117996  0.45342055     0.46700
H226        H  0.92894909  0.74556279  0.01955943     0.42000
H227        H  0.03731839  0.73647570  0.47101054     0.45500
H228        H  0.03993864  0.82290511  0.01728046     0.37000
C229        C  0.99813248  0.57919733  0.36335333    -0.27300
C230        C  0.97182558  0.57420374  0.37624265     0.02300
C231        C  0.94479957  0.55142087  0.36562980     0.30400
C232        C  0.94435334  0.53431136  0.34225736    -0.19100
C233        C  0.97068025  0.53914905  0.32969207    -0.28500
C234        C  0.99767992  0.56172204  0.34035752     0.44400
C235        C  0.97282990  0.59216538  0.40136404     0.05600
O236        O  0.91876947  0.54527021  0.37839329    -0.57000
H237        H  0.92348328  0.51685888  0.33423247     0.18600
O238        O  0.02370545  0.56637850  0.32880143    -0.63700
H239        H  0.01908754  0.59661692  0.37125108     0.17000
C240        C  0.98943328  0.59432876  0.42607879     0.29300
C241        C  0.98971161  0.61081685  0.44985538    -0.24600
C242        C  0.97319142  0.62507026  0.44980482    -0.23900
C243        C  0.95659482  0.62296833  0.42496070     0.40700
C244        C  0.95669074  0.60678172  0.40095679    -0.26400
O245        O  0.00511746  0.57999193  0.42742107    -0.58200
H246        H  0.00288570  0.61236300  0.46851380     0.16300
O247        O  0.93974337  0.63608693  0.42404146    -0.59700
H248        H  0.94392553  0.60543480  0.38201678     0.14800
H249        H  0.02890285  0.58157722  0.31365669     0.46700
H250        H  0.99094172  0.55994065  0.43445139     0.42000
H251        H  0.92102412  0.62206979  0.43373977     0.45500
H252        H  0.91594195  0.53164397  0.39452886     0.37000
C253        C  0.99806013  0.58665691  0.14161186    -0.27300
C254        C  0.97146219  0.58567479  0.13518061     0.02300
C255        C  0.94621779  0.56711940  0.15168805     0.30400
C256        C  0.94756397  0.54922809  0.17337451    -0.19100
C257        C  0.97387700  0.54950023  0.17897403    -0.28500
C258        C  0.99932516  0.56863529  0.16323790     0.44400
C259        C  0.96971004  0.60197395  0.10963858     0.05600
O260        O  0.91994895  0.56581760  0.14635890    -0.57000
H261        H  0.92787798  0.53459869  0.18546011     0.18600
O262        O  0.02541175  0.56958335  0.16866355    -0.63700
H263        H  0.01763715  0.60056548  0.12905484     0.17000
C264        C  0.98974601  0.63217643  0.10556221     0.29300
C265        C  0.98953558  0.64605373  0.07966386    -0.24600
C266        C  0.96924625  0.63027707  0.05760904    -0.23900
C267        C  0.94800420  0.60052687  0.06261415     0.40700
C268        C  0.94864696  0.58659254  0.08816215    -0.26400
O269        O  0.00997123  0.64819801  0.12651607    -0.58200
H270        H  0.00592637  0.66895104  0.07644376     0.16300
O271        O  0.92675512  0.58464721  0.04242071    -0.59700
H272        H  0.93302394  0.56338266  0.09084426     0.14800
H273        H  0.02561901  0.55487729  0.15541527     0.46700
H274        H  0.99942817  0.65419910  0.14020136     0.42000
H275        H  0.90977042  0.58690928  0.04788094     0.45500
H276        H  0.92125205  0.58297328  0.15660834     0.37000
C277        C  0.00534221  0.22356670  0.02070583    -0.27300
C278        C  0.98375282  0.19788464  0.00709663     0.02300
C279        C  0.96231647  0.19925570  0.48991778     0.30400
C280        C  0.96230586  0.22577501  0.48717314    -0.19100
C281        C  0.98365649  0.25134374  0.00117939    -0.28500
C282        C  0.00559751  0.25013912  0.01762027     0.44400
C283        C  0.98387518  0.16989058  0.01098577     0.05600
O284        O  0.94132981  0.17482266  0.47566781    -0.57000
H285        H  0.94530928  0.22626762  0.47436734     0.18600
O286        O  0.02752704  0.27486278  0.03066904    -0.63700
H287        H  0.02199591  0.22298521  0.03399857     0.17000
C288        C  0.00922923  0.16822457  0.50500128     0.29300
C289        C  0.00874080  0.14152868  0.50819643    -0.24600
C290        C  0.98320370  0.11594832  0.01752176    -0.23900
C291        C  0.95805537  0.11794470  0.02439670     0.40700
C292        C  0.95854346  0.14466289  0.02097578    -0.26400
O293        O  0.03408396  0.19217985  0.49433799    -0.58200
H294        H  0.02830028  0.14077636  0.50238238     0.16300
O295        O  0.93255548  0.09382029  0.03365127    -0.59700
H296        H  0.93897421  0.14566737  0.02612129     0.14800
H297        H  0.04233848  0.28530314  0.01526278     0.46700
H298        H  0.04849391  0.19896593  0.51043483     0.42000
H299        H  0.93387329  0.09436737  0.05508254     0.45500
H300        H  0.94976293  0.17568690  0.45623761     0.37000
C301        C  0.96506871  0.33661391  0.09900415    -0.27300
C302        C  0.98090641  0.36750304  0.09905742     0.02300
C303        C  0.99738810  0.38234067  0.07424614     0.30400
C304        C  0.99772634  0.36644680  0.05012812    -0.19100
C305        C  0.98120759  0.33558334  0.04971662    -0.28500
C306        C  0.96464313  0.32071739  0.07449590     0.44400
C307        C  0.97926414  0.38413932  0.12443604     0.05600
O308        O  0.01274339  0.41245246  0.07299047    -0.57000
H309        H  0.01076128  0.37841337  0.03147111     0.18600
O310        O  0.94715999  0.29071251  0.07473094    -0.63700
H311        H  0.95254303  0.32468141  0.11789682     0.17000
C312        C  0.95193275  0.37738373  0.13664490     0.29300
C313        C  0.95080550  0.39451173  0.15928302    -0.24600
C314        C  0.97660448  0.41853967  0.16995853    -0.23900
C315        C  0.00388738  0.42514523  0.15818986     0.40700
C316        C  0.00512524  0.40787864  0.13581279    -0.26400
O317        O  0.92611403  0.35513777  0.12553451    -0.58200
H318        H  0.92970386  0.38929431  0.16829435     0.16300
O319        O  0.02939485  0.44882517  0.16803487    -0.59700
H320        H  0.02638346  0.41322364  0.12715046     0.14800
H321        H  0.92797240  0.28675389  0.06686154     0.46700
H322        H  0.91861297  0.33927610  0.14027579     0.42000
H323        H  0.03472310  0.44174412  0.18563704     0.45500
H324        H  0.99810720  0.41809920  0.06719397     0.37000
C325        C  0.99436842  0.34752678  0.39436130    -0.27300
C326        C  0.97213974  0.35462245  0.39064113     0.02300
C327        C  0.95075319  0.34684798  0.41250448     0.30400
C328        C  0.95217210  0.33290367  0.43771770    -0.19100
C329        C  0.97494928  0.32675539  0.44190485    -0.28500
C330        C  0.99602483  0.33393810  0.41985484     0.44400
C331        C  0.97248161  0.37202087  0.36511124     0.05600
O332        O  0.92901458  0.35384813  0.41000050    -0.57000
H333        H  0.93581480  0.32755778  0.45447645     0.18600
O334        O  0.01901395  0.32894245  0.42351805    -0.63700
H335        H  0.01095661  0.35326063  0.37777344     0.17000
C336        C  0.99768842  0.39920105  0.35843889     0.29300
C337        C  0.99667745  0.41683518  0.33630920    -0.24600
C338        C  0.97074525  0.40785586  0.32063760    -0.23900
C339        C  0.94579530  0.38046319  0.32664238     0.40700
C340        C  0.94681597  0.36265260  0.34862431    -0.26400
O341        O  0.02312258  0.40922733  0.37406106    -0.58200
H342        H  0.01598448  0.43793129  0.33177380     0.16300
O343        O  0.92024547  0.37117235  0.31142943    -0.59700
H344        H  0.92732200  0.34173884  0.35324460     0.14800
H345        H  0.03468135  0.34690935  0.43301542     0.46700
H346        H  0.02074246  0.41930167  0.39109331     0.42000
H347        H  0.90981338  0.37983506  0.32163840     0.45500
H348        H  0.93796200  0.37438621  0.41697208     0.37000
C349        C  0.21201001  0.97630342  0.52482064    -0.27300
C350        C  0.20682227  0.99713877  0.01139417     0.02300
C351        C  0.22926511  0.01961606  0.99457735     0.30400
C352        C  0.25638731  0.02088019  0.99134012    -0.19100
C353        C  0.26148839  0.99998399  0.00486036    -0.28500
C354        C  0.23907345  0.97763567  0.52174612     0.44400
C355        C  0.17765895  0.99470073  0.01464680     0.05600
O356        O  0.22478656  0.04022254  0.98101993    -0.57000
H357        H  0.27353178  0.03829871  0.97847674     0.18600
O358        O  0.24310007  0.95632866  0.53441076    -0.63700
H359        H  0.19499308  0.95893035  0.53782403     0.17000
C360        C  0.15189895  0.96911357  0.50592262     0.29300
C361        C  0.12458794  0.96751878  0.50816401    -0.24600
C362        C  0.12231408  0.99118156  0.01925909    -0.23900
C363        C  0.14815456  0.01625969  0.02936196     0.40700
C364        C  0.17547599  0.01791989  0.02674964    -0.26400
O365        O  0.15344617  0.94627147  0.49349285    -0.58200
H366        H  0.10530325  0.94805863  0.50011007     0.16300
O367        O  0.14722123  0.03968787  0.04110295    -0.59700
H368        H  0.19509419  0.03749611  0.03410831     0.14800
H369        H  0.24548833  0.96098267  0.55538481     0.46700
H370        H  0.14669446  0.93090257  0.50869559     0.42000
H371        H  0.14304937  0.03492594  0.06196719     0.45500
H372        H  0.21627177  0.03159695  0.96189837     0.37000
C373        C  0.36335807  0.97515259  0.41608462    -0.27300
C374        C  0.36737755  0.99422914  0.39303609     0.02300
C375        C  0.35591239  0.01328610  0.39553247     0.30400
C376        C  0.34210431  0.01403613  0.42134588    -0.19100
C377        C  0.33942939  0.99591592  0.44486580    -0.28500
C378        C  0.34930738  0.97562317  0.44158340     0.44400
C379        C  0.38417913  0.99409181  0.36708389     0.05600
O380        O  0.35726050  0.03047819  0.37255016    -0.57000
H381        H  0.33416166  0.02937074  0.42321667     0.18600
O382        O  0.34556636  0.95621883  0.46328470    -0.63700
H383        H  0.37166424  0.96008768  0.41453484     0.17000
C384        C  0.40887694  0.02009118  0.35685907     0.29300
C385        C  0.42611796  0.01883896  0.33436202    -0.24600
C386        C  0.41976293  0.99180871  0.32237550    -0.23900
C387        C  0.39499727  0.96590114  0.33223734     0.40700
C388        C  0.37728225  0.96717430  0.35419457    -0.26400
O389        O  0.41725029  0.04666029  0.36960132    -0.58200
H390        H  0.44522947  0.03890906  0.32699647     0.16300
O391        O  0.38816624  0.93920947  0.32073275    -0.59700
H392        H  0.35847922  0.94693392  0.36172246     0.14800
H393        H  0.32490227  0.94003699  0.46149503     0.46700
H394        H  0.43093437  0.04856255  0.38531728     0.42000
H395        H  0.39750870  0.93134134  0.33382704     0.45500
H396        H  0.36941739  0.05109263  0.37919445     0.37000
C397        C  0.34760955  0.98112511  0.09934091    -0.27300
C398        C  0.37812354  0.99974945  0.10112023     0.02300
C399        C  0.39322960  0.01964318  0.07853462     0.30400
C400        C  0.37776850  0.02056985  0.05438865    -0.19100
C401        C  0.34722889  0.00189237  0.05242912    -0.28500
C402        C  0.33209724  0.98208815  0.07522978     0.44400
C403        C  0.39418636  0.99765103  0.12621872     0.05600
O404        O  0.42327237  0.03712177  0.07924703    -0.57000
H405        H  0.38973128  0.03580275  0.03701230     0.18600
O406        O  0.30232846  0.96310736  0.07388742    -0.63700
H407        H  0.33585411  0.96565894  0.11662579     0.17000
C408        C  0.41097450  0.02219198  0.14402469     0.29300
C409        C  0.42748777  0.02023780  0.16662316    -0.24600
C410        C  0.42694348  0.99380012  0.17199293    -0.23900
C411        C  0.40928567  0.96893027  0.15501955     0.40700
C412        C  0.39310060  0.97098182  0.13211701    -0.26400
O413        O  0.41136325  0.04812355  0.13946990    -0.58200
H414        H  0.44079146  0.03932352  0.17997127     0.16300
O415        O  0.40821414  0.94279033  0.16040546    -0.59700
H416        H  0.38004831  0.95190928  0.11866332     0.14800
H417        H  0.29991636  0.94608090  0.06249512     0.46700
H418        H  0.39367983  0.04578997  0.14958024     0.42000
H419        H  0.39119129  0.93188516  0.17357928     0.45500
H420        H  0.42708417  0.05736020  0.08248270     0.37000
C421        C  0.75176296  0.96847874  0.00554762    -0.27300
C422        C  0.77452152  0.98898565  0.48777646     0.02300
C423        C  0.77066249  0.01013589  0.47287615     0.30400
C424        C  0.74442469  0.01068337  0.47606603    -0.19100
C425        C  0.72173263  0.99041431  0.49418056    -0.28500
C426        C  0.72554393  0.96900974  0.00876267     0.44400
C427        C  0.80233914  0.98831464  0.48551797     0.05800
O428        O  0.79195011  0.02956220  0.45428545    -0.57000
H429        H  0.74184055  0.02708971  0.46436877     0.18600
O430        O  0.70357215  0.94809438  0.02573740    -0.63700
H431        H  0.75440676  0.95201790  0.01706612     0.17000
C432        C  0.82900291  0.01197396  0.99553110     0.29300
C433        C  0.85463677  0.01012648  0.99521889    -0.24600
C434        C  0.85429760  0.98457353  0.48548266    -0.23900
C435        C  0.82760593  0.96118636  0.47469301     0.40700
C436        C  0.80196988  0.96315453  0.47493380    -0.26400
O437        O  0.83002666  0.03657042  0.00680048    -0.58200
H438        H  0.87461711  0.02845002  0.00378463     0.16300
O439        O  0.82595884  0.93589399  0.46469772    -0.59700
H440        H  0.78156582  0.94476341  0.46718081     0.14800
H441        H  0.68979701  0.93288848  0.01205251     0.46700
H442        H  0.82339986  0.03146861  0.02717106     0.42000
H443        H  0.83250743  0.94006684  0.44423218     0.45500
H444        H  0.80095743  0.04888114  0.46415505     0.37000
C445        C  0.61181743  0.01293832  0.41900029    -0.27300
C446        C  0.60496788  0.99179652  0.39740614     0.02300
C447        C  0.61583228  0.97231200  0.39952383     0.30400
C448        C  0.63254000  0.97352137  0.42363163    -0.19100
C449        C  0.63837960  0.99389133  0.44588465    -0.28500
C450        C  0.62849611  0.01417730  0.44305879     0.44400
C451        C  0.58627915  0.99027537  0.37290325     0.05600
O452        O  0.61076127  0.95254534  0.37780929    -0.57000
H453        H  0.64024364  0.95797772  0.42532382     0.18600
O454        O  0.63487123  0.03515480  0.46381976    -0.63700
H455        H  0.60382937  0.02826417  0.41738304     0.17000
C456        C  0.55862979  0.96504489  0.36825250     0.29300
C457        C  0.54105626  0.96431200  0.34520857    -0.24600
C458        C  0.55060858  0.98870905  0.32693264    -0.23900
C459        C  0.57789293  0.01414210  0.33194301     0.40700
C460        C  0.59562726  0.01476989  0.35476718    -0.26400
O461        O  0.54838133  0.94128463  0.38644724    -0.58200
H462        H  0.51977877  0.94487432  0.34177362     0.16300
O463        O  0.58724538  0.03845027  0.31467287    -0.59700
H464        H  0.61666892  0.03443707  0.35842432     0.14800
H465        H  0.65205499  0.05327638  0.45619013     0.46700
H466        H  0.53881762  0.94566587  0.40265553     0.42000
H467        H  0.58184463  0.05141251  0.32531435     0.45500
H468        H  0.59614098  0.93308766  0.38578324     0.37000
C469        C  0.57452592  0.96442490  0.14471114    -0.27300
C470        C  0.59378809  0.99069703  0.13016268     0.02300
C471        C  0.59505813  0.01696128  0.13908775     0.30400
C472        C  0.57731330  0.01653293  0.16206480    -0.19100
C473        C  0.55749511  0.99007892  0.17591543    -0.28500
C474        C  0.55621726  0.96392391  0.16702611     0.44400
C475        C  0.61032911  0.98968270  0.10429717     0.05600
O476        O  0.61168713  0.04260956  0.12400087    -0.57000
H477        H  0.57806912  0.03673593  0.16829280     0.18600
O478        O  0.53669502  0.93764562  0.17968939    -0.63700
H479        H  0.57309314  0.94398098  0.13820978     0.17000
C480        C  0.64081084  0.00919850  0.10068652     0.29300
C481        C  0.65507987  0.00836480  0.07529079    -0.24600
C482        C  0.63952869  0.98787168  0.05339384    -0.23900
C483        C  0.60951128  0.96728056  0.05778363     0.40700
C484        C  0.59515890  0.96850552  0.08279200    -0.26400
O485        O  0.65692135  0.02915512  0.12178188    -0.58200
H486        H  0.67821135  0.02422205  0.07240533     0.16300
O487        O  0.59386759  0.94599965  0.03754736    -0.59700
H488        H  0.57185928  0.95303174  0.08516666     0.14800
H489        H  0.51911050  0.92908054  0.16701067     0.46700
H490        H  0.66157219  0.01802846  0.13608576     0.42000
H491        H  0.59665440  0.92930269  0.04284018     0.45500
H492        H  0.62705780  0.05613865  0.13770040     0.37000
C493        C  0.74644816  0.76559238  0.02280086    -0.27300
C494        C  0.77278931  0.77044282  0.01015129     0.02300
C495        C  0.77247685  0.74809879  0.49307154     0.30400
C496        C  0.74650311  0.72105344  0.48993221    -0.19100
C497        C  0.72036750  0.71584811  0.00335970    -0.28500
C498        C  0.72032902  0.73872824  0.01920268     0.44400
C499        C  0.80052973  0.79875820  0.01472096     0.05600
O500        O  0.79751376  0.75244550  0.47941716    -0.57000
H501        H  0.74693490  0.70388901  0.47740457     0.18600
O502        O  0.69484680  0.73507085  0.03120517    -0.63700
H503        H  0.74616415  0.78256668  0.03578172     0.17000
C504        C  0.80260282  0.82575289  0.50773287     0.29300
C505        C  0.82976024  0.85186235  0.50950181    -0.24600
C506        C  0.85527089  0.85178598  0.01864768    -0.23900
C507        C  0.85260554  0.82485291  0.02754098     0.40700
C508        C  0.82551757  0.79871657  0.02531011    -0.26400
O509        O  0.77865365  0.82664632  0.49730999    -0.58200
H510        H  0.83093387  0.87209849  0.50261756     0.16300
O511        O  0.87642560  0.82352819  0.03760137    -0.59700
H512        H  0.82409929  0.77818786  0.03150741     0.14800
H513        H  0.68662272  0.74268814  0.01650098     0.46700
H514        H  0.77179803  0.83387612  0.51366404     0.42000
H515        H  0.87747381  0.82805204  0.05855584     0.45500
H516        H  0.79835461  0.76258776  0.46103055     0.37000
C517        C  0.62869169  0.62998024  0.39583593    -0.27300
C518        C  0.61680675  0.59948687  0.39361962     0.02300
C519        C  0.62120681  0.58435223  0.41647354     0.30400
C520        C  0.63621467  0.59952524  0.44142243    -0.19100
C521        C  0.64669370  0.62978079  0.44432206    -0.28500
C522        C  0.64325038  0.64507585  0.42097523     0.44400
C523        C  0.59824412  0.58344393  0.36833662     0.05600
O524        O  0.60991761  0.55454626  0.41516644    -0.57000
H525        H  0.63884703  0.58738755  0.45899162     0.18600
O526        O  0.65272797  0.67449698  0.42296145    -0.63700
H527        H  0.62583389  0.64202005  0.37832161     0.17000
C528        C  0.57428626  0.58690596  0.36024931     0.29300
C529        C  0.55616252  0.57067757  0.33721312    -0.24600
C530        C  0.56077803  0.54997247  0.32270230    -0.23900
C531        C  0.58486915  0.54673815  0.33043835     0.40700
C532        C  0.60361975  0.56367177  0.35285443    -0.26400
O533        O  0.56772372  0.60528602  0.37538839    -0.58200
H534        H  0.53762668  0.57326481  0.33145600     0.16300
O535        O  0.59014074  0.52696071  0.31627579    -0.59700
H536        H  0.62212355  0.56099902  0.35849252     0.14800
H537        H  0.63614846  0.67558433  0.43186937     0.46700
H538        H  0.55631272  0.59374473  0.39247147     0.42000
H539        H  0.57759681  0.50791608  0.32617552     0.45500
H540        H  0.59004934  0.54577165  0.42392711     0.37000
C541        C  0.58902709  0.60406793  0.07775298    -0.27300
C542        C  0.60309839  0.59883173  0.10080518     0.02300
C543        C  0.63356301  0.60978440  0.09954409     0.30400
C544        C  0.64954689  0.62519623  0.07502944    -0.19100
C545        C  0.63538575  0.62972551  0.05150543    -0.28500
C546        C  0.60494386  0.61939955  0.05318708     0.44400
C547        C  0.58559775  0.58070366  0.12550410     0.05600
O548        O  0.64774763  0.60498088  0.12193552    -0.57000
H549        H  0.67290883  0.63299200  0.07406336     0.18600
O550        O  0.59049693  0.62390813  0.03082632    -0.63700
H551        H  0.56555735  0.59575109  0.07861988     0.17000
C552        C  0.57495605  0.59212307  0.14673644     0.29300
C553        C  0.55790673  0.57423657  0.16967034    -0.24600
C554        C  0.55145441  0.54497517  0.17171887    -0.23900
C555        C  0.56255999  0.53376033  0.15069875     0.40700
C556        C  0.57950029  0.55162034  0.12774084    -0.26400
O557        O  0.58195433  0.62095739  0.14572192    -0.58200
H558        H  0.54975241  0.58316901  0.18594925     0.16300
O559        O  0.55764618  0.50566135  0.15298081    -0.59700
H560        H  0.58788638  0.54277602  0.11160095     0.14800
H561        H  0.59543092  0.64465903  0.03268722     0.46700
H562        H  0.56521388  0.62078374  0.13569046     0.42000
H563        H  0.54158752  0.49388688  0.13910632     0.45500
H564        H  0.65190858  0.62065528  0.13621394     0.37000
C565        C  0.22234046  0.20112983  0.01197161    -0.27300
C566        C  0.20272843  0.19837048  0.48993248     0.02300
C567        C  0.21061586  0.22225631  0.47107399     0.30400
C568        C  0.23728590  0.24849132  0.47487937    -0.19100
C569        C  0.25692564  0.25133539  0.49701757    -0.28500
C570        C  0.24936571  0.22706734  0.01530889     0.44400
C571        C  0.17371707  0.17093396  0.48757543     0.05600
O572        O  0.19241720  0.22020530  0.44882561    -0.57000
H573        H  0.24250536  0.26675357  0.46051277     0.18600
O574        O  0.26833318  0.22824095  0.03632491    -0.63700
H575        H  0.21660068  0.18314743  0.02687793     0.17000
C576        C  0.17146400  0.14313032  0.48693229     0.29300
C577        C  0.14374255  0.11755425  0.48666931    -0.24600
C578        C  0.11777349  0.11903474  0.48733968    -0.23900
C579        C  0.12016206  0.14701553  0.98740501     0.40700
C580        C  0.14788480  0.17252733  0.98738895    -0.26400
O581        O  0.19626902  0.14077138  0.48599081    -0.58200
H582        H  0.14265877  0.09645706  0.48648350     0.16300
O583        O  0.09564179  0.14984024  0.98842693    -0.59700
H584        H  0.14916944  0.19370441  0.98828244     0.14800
H585        H  0.28200012  0.22338091  0.02626517     0.46700
H586        H  0.19764083  0.13339269  0.50536069     0.42000
H587        H  0.09234897  0.15166879  0.00928713     0.45500
H588        H  0.19721976  0.21092296  0.43267988     0.37000
C589        C  0.38553040  0.40249099  0.36143861    -0.27300
C590        C  0.39413820  0.38517281  0.37705720     0.02300
C591        C  0.41971489  0.38478795  0.36878721     0.30400
C592        C  0.43644144  0.40180160  0.34535200    -0.19100
C593        C  0.42799935  0.41937509  0.33012196    -0.28500
C594        C  0.40243833  0.41971155  0.33820065     0.44400
C595        C  0.37699120  0.36851936  0.40264205     0.05600
O596        O  0.42884495  0.36835441  0.38385767    -0.57000
H597        H  0.45623348  0.40161838  0.33924195     0.18600
O598        O  0.39398385  0.43692111  0.32356084    -0.63700
H599        H  0.36580411  0.40283533  0.36746251     0.17000
C600        C  0.37249956  0.38305247  0.42588389     0.29300
C601        C  0.35677711  0.36714804  0.45023129    -0.24600
C602        C  0.34540181  0.33666578  0.45194592    -0.23900
C603        C  0.35030011  0.32220508  0.42875817     0.40700
C604        C  0.36572770  0.33810094  0.40423155    -0.26400
O605        O  0.38454235  0.41299751  0.42549968    -0.58200
H606        H  0.35336364  0.37873058  0.46780278     0.16300
O607        O  0.34071821  0.29272033  0.43007655    -0.59700
H608        H  0.36916422  0.32670406  0.38648971     0.14800
H609        H  0.40389587  0.45611933  0.33369103     0.46700
H610        H  0.36792150  0.41629358  0.42140428     0.42000
H611        H  0.35673905  0.29131259  0.43986269     0.45500
H612        H  0.44119956  0.38124840  0.39980385     0.37000
C613        C  0.35407870  0.32986497  0.10665636    -0.27300
C614        C  0.36385635  0.35978620  0.11070189     0.02300
C615        C  0.35814756  0.37528341  0.08932921     0.30400
C616        C  0.34374435  0.36112173  0.06380608    -0.19100
C617        C  0.33460636  0.33136671  0.05926780    -0.28500
C618        C  0.33940664  0.31557368  0.08116317     0.44400
C619        C  0.38225344  0.37554667  0.13594477     0.05600
O620        O  0.36828961  0.40475955  0.09241921    -0.57000
H621        H  0.34035792  0.37361622  0.04713462     0.18600
O622        O  0.33108444  0.28659204  0.07729929    -0.63700
H623        H  0.35855039  0.31781721  0.12295675     0.17000
C624        C  0.37175131  0.38649473  0.15781626     0.29300
C625        C  0.39084263  0.40461833  0.17950481    -0.24600
C626        C  0.42040477  0.41177922  0.17975180    -0.23900
C627        C  0.43051254  0.39974524  0.15856425     0.40700
C628        C  0.41148666  0.38182407  0.13679559    -0.26400
O629        O  0.34310857  0.38022755  0.15767481    -0.58200
H630        H  0.38277896  0.41359097  0.19583173     0.16300
O631        O  0.45922364  0.40621246  0.15844816    -0.59700
H632        H  0.41978617  0.37354656  0.11999863     0.14800
H633        H  0.34788019  0.28684332  0.06726862     0.46700
H634        H  0.33208674  0.36161032  0.16869575     0.42000
H635        H  0.45978338  0.39177996  0.17185504     0.45500
H636        H  0.35145104  0.40600973  0.10039078     0.37000
C637        C  0.28535849  0.27935278  0.50028188     0.03400
C638        C  0.29594912  0.29174384  0.52778794    -0.12700
C639        C  0.32286248  0.31810193  0.53056162     0.00900
C640        C  0.33904576  0.33223684  0.00565170    -0.11200
C641        C  0.32865960  0.32052692  0.97808111     0.03400
C642        C  0.30184722  0.29408597  0.97558557    -0.10600
H643        H  0.28305195  0.28131150  0.54699457     0.09000
H644        H  0.36002308  0.35236599  0.00779990     0.06600
H645        H  0.29365775  0.28506803  0.95430916     0.06400
C646        C  0.69360237  0.68632786  0.50140556     0.03400
C647        C  0.67780215  0.67213383  0.52659795    -0.12700
C648        C  0.65230551  0.64443790  0.52502858     0.00900
C649        C  0.64282986  0.63067899  0.99808271    -0.11200
C650        C  0.65838997  0.64432825  0.97266758     0.03400
C651        C  0.68400054  0.67207945  0.97453859    -0.10600
H652        H  0.68528070  0.68267307  0.54747484     0.09000
H653        H  0.62299731  0.60935065  0.99689782     0.06600
H654        H  0.69629853  0.68274303  0.95509703     0.06400
N655        N  0.49275758  0.48354952  0.79517124    -0.36300
N656        N  0.52889045  0.52151866  0.74881570    -0.56800
N657        N  0.48814331  0.47912567  0.70691095    -0.36300
N658        N  0.45061992  0.44256536  0.75336126    -0.56800
C659        C  0.51148962  0.50771223  0.81047804     0.27300
C660        C  0.46995798  0.46630714  0.81278955     0.27300
C661        C  0.50472736  0.50236979  0.68947550     0.27300
C662        C  0.46360373  0.46053213  0.69194705     0.27300
C663        C  0.54740896  0.53510429  0.77116355     0.35900
C664        C  0.54460858  0.53319774  0.72436064     0.35900
C665        C  0.43930835  0.42661965  0.77772548     0.35900
C666        C  0.43674235  0.42423912  0.73102005     0.35900
C667        C  0.50051026  0.50554451  0.83828806    -0.21600
C668        C  0.47426766  0.47953281  0.83966823    -0.21600
C669        C  0.49061778  0.49843086  0.66310029    -0.21600
C670        C  0.46469856  0.47203975  0.66465284    -0.21600
C671        C  0.57487744  0.55588523  0.76084091    -0.22600
C672        C  0.57314688  0.55456441  0.73118614    -0.22600
C673        C  0.41789579  0.39812489  0.77088589    -0.22600
C674        C  0.41633182  0.39658629  0.74123485    -0.22600
C675        C  0.53924434  0.53037769  0.80068970    -0.18000
C676        C  0.44651665  0.43797021  0.80604039    -0.18000
C677        C  0.44101627  0.43270734  0.70162685    -0.18000
C678        C  0.53307689  0.52613798  0.69600169    -0.18000
H679        H  0.51043573  0.52070595  0.85608678     0.14900
H680        H  0.46026857  0.47104826  0.85856698     0.14900
H681        H  0.49834116  0.51293528  0.64451466     0.14900
H682        H  0.44858108  0.46233026  0.64752634     0.14900
H683        H  0.59408842  0.57072569  0.77330153     0.13200
H684        H  0.59081835  0.56804310  0.71637028     0.13200
H685        H  0.40455770  0.38040046  0.78570803     0.13200
H686        H  0.40160741  0.37740544  0.72868088     0.13200
H687        H  0.49708870  0.47739330  0.77527166     0.26500
H688        H  0.49484324  0.47459018  0.72642089     0.26500
C689        C  0.69376325  0.99093098  0.49644822     0.03400
C690        C  0.67982733  0.99247824  0.97109144    -0.12700
C691        C  0.65339327  0.99281257  0.97255281     0.00900
C692        C  0.64056319  0.99110598  0.49958608    -0.11200
C693        C  0.65391859  0.98942476  0.52520303     0.03400
C694        C  0.68078110  0.98970628  0.52356171    -0.10600
H695        H  0.68950020  0.99330953  0.95013550     0.09000
H696        H  0.61993994  0.99101477  0.50069431     0.06600
H697        H  0.69142628  0.98881781  0.54329394     0.06400
C698        C  0.29037197  0.00182889  0.50216570     0.03400
C699        C  0.30584383  0.00324704  0.52736399    -0.12700
C700        C  0.33181557  0.00217912  0.52580995     0.00900
C701        C  0.34283732  0.00057469  0.49869352    -0.11200
C702        C  0.32775456  0.99914333  0.97312970     0.03400
C703        C  0.30162103  0.00027877  0.97497259    -0.10600
H704        H  0.29747701  0.00497767  0.54827430     0.09000
H705        H  0.36311377  0.00000688  0.49753752     0.06600
H706        H  0.28944313  0.99870217  0.95549805     0.06400
N707        N  0.49003677  0.98984744  0.70489659    -0.36300
N708        N  0.44957536  0.99137119  0.74831874    -0.56800
N709        N  0.48474447  0.98733727  0.79384266    -0.36300
N710        N  0.52683182  0.98877671  0.75038542    -0.56800
C711        C  0.47236339  0.99487809  0.68753300     0.27300
C712        C  0.51318029  0.99358216  0.68866817     0.27300
C713        C  0.46659317  0.99311884  0.80981766     0.27300
C714        C  0.50749993  0.99205670  0.81103409     0.27300
C715        C  0.43440674  0.98933644  0.72405005     0.35900
C716        C  0.43181709  0.98834080  0.77084345     0.35900
C717        C  0.54129111  0.98560256  0.72767251     0.35900
C718        C  0.53859533  0.98455662  0.77461313     0.35900
C719        C  0.48408853  0.00137741  0.65978746    -0.21600
C720        C  0.50966548  0.00039961  0.66045355    -0.21600
C721        C  0.47761585  0.00082422  0.83768323    -0.21600
C722        C  0.50344651  0.00031958  0.83840682    -0.21600
C723        C  0.40703216  0.98539751  0.73121512    -0.22600
C724        C  0.40543663  0.98485314  0.76084943    -0.22600
C725        C  0.56263626  0.97969592  0.73760558    -0.22600
C726        C  0.56082684  0.97887720  0.76728795    -0.22600
C727        C  0.44519422  0.99240547  0.69546687    -0.18000
C728        C  0.53661754  0.98961699  0.69819954    -0.18000
C729        C  0.53125813  0.98795904  0.80329031    -0.18000
C730        C  0.43984924  0.99067781  0.80029503    -0.18000
H731        H  0.47497539  0.00597310  0.64082854     0.14900
H732        H  0.52373372  0.00393176  0.64199796     0.14900
H733        H  0.46814355  0.00629814  0.85572477     0.14900
H734        H  0.51759364  0.00538906  0.85709531     0.14900
H735        H  0.39004928  0.98343200  0.71661523     0.13200
H736        H  0.38708587  0.98252426  0.77353914     0.13200
H737        H  0.57815844  0.97663145  0.72488608     0.13200
H738        H  0.57468391  0.97505348  0.78183716     0.13200
H739        H  0.48491023  0.98155722  0.72561972     0.26500
H740        H  0.48046472  0.97779219  0.77353698     0.26500
C741        C  0.98238400  0.27885116  0.49913614     0.03400
C742        C  0.97968610  0.28953118  0.97207320    -0.12700
C743        C  0.97764518  0.31506577  0.97025168     0.00900
C744        C  0.97796508  0.32970293  0.49574921    -0.11200
C745        C  0.98072570  0.31947164  0.52299368     0.03400
C746        C  0.98312926  0.29409081  0.52442815    -0.10600
H747        H  0.97909442  0.27795090  0.95247200     0.09000
H748        H  0.97600684  0.34919256  0.49430339     0.06600
H749        H  0.98545646  0.28604556  0.54526822     0.06400
C750        C  0.97846428  0.68560805  0.49888959     0.03400
C751        C  0.97678643  0.66955350  0.97394300    -0.12700
C752        C  0.97321771  0.64137946  0.97606791     0.00900
C753        C  0.97068680  0.62896181  0.50355122    -0.11200
C754        C  0.97164516  0.64418366  0.52883241     0.03400
C755        C  0.97590711  0.67271475  0.52634270    -0.10600
H756        H  0.97844070  0.67907251  0.95276890     0.09000
H757        H  0.96823023  0.60732074  0.50526651     0.06600
H758        H  0.97713764  0.68481527  0.54574856     0.06400
N759        N  0.97578337  0.48260863  0.70529231    -0.36300
N760        N  0.97181648  0.51735537  0.75232311    -0.56800
N761        N  0.97069409  0.47513019  0.79386574    -0.36300
N762        N  0.97118748  0.43859211  0.74685394    -0.56800
C763        C  0.97152765  0.50206660  0.68989951     0.27300
C764        C  0.97174715  0.46077800  0.68702865     0.27300
C765        C  0.96520091  0.49213611  0.81176734     0.27300
C766        C  0.96504508  0.45071930  0.80880922     0.27300
C767        C  0.97587174  0.53579493  0.73014024     0.35900
C768        C  0.97406168  0.53220620  0.77693569     0.35900
C769        C  0.97641540  0.42754906  0.72264423     0.35900
C770        C  0.97399724  0.42376279  0.76937388     0.35900
C771        C  0.96523626  0.49271089  0.66137700    -0.21600
C772        C  0.96544322  0.46674636  0.65955926    -0.21600
C773        C  0.95618664  0.47842608  0.83852981    -0.21600
C774        C  0.95599898  0.45228512  0.83662369    -0.21600
C775        C  0.98019481  0.56231246  0.74068035    -0.22600
C776        C  0.97902602  0.56004153  0.77030271    -0.22600
C777        C  0.98189743  0.40516385  0.72980102    -0.22600
C778        C  0.98043522  0.40281985  0.75940739    -0.22600
C779        C  0.97419272  0.52859735  0.70045486    -0.18000
C780        C  0.97498659  0.43634619  0.69404833    -0.18000
C781        C  0.96976185  0.42802794  0.79877400    -0.18000
C782        C  0.96997197  0.52051291  0.80527134    -0.18000
H783        H  0.96104301  0.50352641  0.64361602     0.14900
H784        H  0.96147188  0.45378838  0.64014435     0.14900
H785        H  0.95068014  0.48650625  0.85766231     0.14900
H786        H  0.95027783  0.43643762  0.85393237     0.14900
H787        H  0.98355654  0.58123472  0.72831878     0.13200
H788        H  0.98115801  0.57685342  0.78520314     0.13200
H789        H  0.98645491  0.39186188  0.71522033     0.13200
H790        H  0.98364579  0.38738326  0.77212435     0.13200
H791        H  0.98398367  0.48558811  0.72616551     0.26500
H792        H  0.98121716  0.48149352  0.77400441     0.26500
O793        O  0.02280231  0.03581713  0.52412150    -0.88000
C794        C  0.96224040  0.01263827  0.95973759     0.88000
Mg795      Mg  0.05713195  0.02514947  0.52254032     1.58100
O796        O  0.93594686  0.97064177  0.52370482    -0.87800
O797        O  0.98672557  0.02956083  0.55232117    -0.75100
C798        C  0.99127993  0.88334315  0.98887632     0.93100
O799        O  0.03114412  0.02968249  0.95610311    -0.74900
O800        O  0.01592533  0.90700834  0.98634411    -0.82400
Mg801      Mg  0.01755253  0.05595443  0.98567281     1.58000
C802        C  0.88441473  0.87921165  0.51597150     0.93000
O803        O  0.00581501  0.08707528  0.50966168    -0.80700
H804        H  0.92853344  0.96757486  0.56637725    -0.06000
C805        C  0.96036005  0.93347370  0.95928116     0.87900
O806        O  0.03082424  0.98483392  0.55188202    -0.75200
O807        O  0.97248953  0.02171984  0.98406481    -0.87900
O808        O  0.88505326  0.90285732  0.50850892    -0.80800
C809        C  0.88115049  0.98206100  0.98928543     0.93100
C810        C  0.98241766  0.08724204  0.51657237     0.92900
Mg811      Mg  0.95606806  0.91428719  0.52141078     1.58000
O812        O  0.96797400  0.88352092  0.99629208    -0.80700
O813        O  0.94241645  0.94042742  0.55120090    -0.74900
O814        O  0.90456999  0.00454441  0.99816372    -0.80800
O815        O  0.06521943  0.09222191  0.98725807    -0.82500
O816        O  0.07086009  0.96717231  0.50882381    -0.80800
C817        C  0.93504054  0.95980426  0.54771580     0.87400
O818        O  0.00158099  0.94842148  0.52361002    -0.87900
O819        O  0.95091502  0.93490522  0.98334259    -0.88000
O820        O  0.98704016  0.94053539  0.95555481    -0.75100
Mg821      Mg  0.94692374  0.01590422  0.52253735     1.58000
O822        O  0.88000472  0.95754903  0.98536043    -0.82500
H823        H  0.02813698  0.04352061  0.56669406    -0.06200
O824        O  0.03760444  0.99972450  0.98386750    -0.87700
H825        H  0.04485384  0.00231422  0.94119146    -0.06000
H826        H  0.00383492  0.94324635  0.56624426    -0.06200
C827        C  0.03845042  0.01030164  0.95975982     0.87400
C828        C  0.01343297  0.03691021  0.54833603     0.87900
C829        C  0.01183969  0.95796271  0.54785918     0.88000
H830        H  0.94573019  0.92664021  0.94085722    -0.06200
O831        O  0.94304586  0.98593822  0.95540332    -0.75200
Mg832      Mg  0.02726814  0.95467052  0.98505630     1.58000
H833        H  0.97048905  0.02759636  0.94155131    -0.06200
C834        C  0.08884925  0.09154883  0.99066962     0.93000
O835        O  0.09343787  0.01435262  0.52108034    -0.82400
C836        C  0.09383920  0.99071975  0.51690453     0.93000
O837        O  0.95823963  0.06347971  0.52060620    -0.82400
Mg838      Mg  0.91643743  0.94579738  0.98461388     1.58200
O839        O  0.08844130  0.06806893  0.99831769    -0.80700
O840        O  0.90795158  0.87826882  0.51935789    -0.82400
C841        C  0.96219869  0.80130416  0.98072042    -0.27300
C842        C  0.98753303  0.79969291  0.98655261     0.02300
C843        C  0.01453924  0.82592261  0.49028200     0.30400
C844        C  0.01567904  0.85307137  0.48936487    -0.19100
C845        C  0.99004180  0.85468531  0.98509243    -0.28500
C846        C  0.96326538  0.82842909  0.97994731     0.44400
C847        C  0.98537022  0.77058943  0.98981812     0.05600
O848        O  0.03977078  0.82523167  0.49598040    -0.57000
H849        H  0.03653194  0.87283336  0.49340646     0.18600
O850        O  0.93785333  0.82889451  0.97469841    -0.63700
H851        H  0.94137428  0.78136909  0.97712744     0.17000
C852        C  0.96598548  0.74996331  0.51014733     0.29300
C853        C  0.96445166  0.72276204  0.51326127    -0.24600
C854        C  0.98184033  0.71537448  0.99610120    -0.23900
C855        C  0.00151427  0.73626548  0.97591352     0.40700
C856        C  0.00305164  0.76348294  0.97287864    -0.26400
O857        O  0.94908612  0.75658125  0.52771690    -0.58200
H858        H  0.94911473  0.70715860  0.52880897     0.16300
O859        O  0.01950971  0.73047886  0.95911359    -0.59700
H860        H  0.01806578  0.77909586  0.95712926     0.14800
H861        H  0.93739612  0.83117880  0.95342031     0.46700
H862        H  0.92894936  0.74556349  0.51956009     0.42000
H863        H  0.03731929  0.73647668  0.97101055     0.45500
H864        H  0.03993904  0.82290570  0.51728045     0.37000
C865        C  0.99813272  0.57919637  0.86335364    -0.27300
C866        C  0.97182585  0.57420309  0.87624280     0.02300
C867        C  0.94479979  0.55142041  0.86562984     0.30400
C868        C  0.94435347  0.53431088  0.84225736    -0.19100
C869        C  0.97068034  0.53914834  0.82969213    -0.28500
C870        C  0.99768007  0.56172104  0.84035781     0.44400
C871        C  0.97283024  0.59216487  0.90136412     0.05600
O872        O  0.91876971  0.54526997  0.87839324    -0.57000
H873        H  0.92348337  0.51685857  0.83423237     0.18600
O874        O  0.02370556  0.56637721  0.82880188    -0.63700
H875        H  0.01908782  0.59661577  0.87125153     0.17000
C876        C  0.98943329  0.59432798  0.92607906     0.29300
C877        C  0.98971177  0.61081628  0.94985552    -0.24600
C878        C  0.97319206  0.62507020  0.94980470    -0.23900
C879        C  0.95659580  0.62296854  0.92496038     0.40700
C880        C  0.95669156  0.60678169  0.90095660    -0.26400
O881        O  0.00511699  0.57999068  0.92742163    -0.58200
H882        H  0.00288564  0.61236222  0.96851406     0.16300
O883        O  0.93974479  0.63608762  0.92404083    -0.59700
H884        H  0.94392660  0.60543500  0.88201644     0.14800
H885        H  0.02890325  0.58157599  0.81365721     0.46700
H886        H  0.99094095  0.55993954  0.93445210     0.42000
H887        H  0.92102538  0.62207074  0.93373891     0.45500
H888        H  0.91594192  0.53164356  0.89452870     0.37000
C889        C  0.99805951  0.58665690  0.64161239    -0.27300
C890        C  0.97146142  0.58567430  0.63518066     0.02300
C891        C  0.94621685  0.56711839  0.65168767     0.30400
C892        C  0.94756299  0.54922698  0.67337405    -0.19100
C893        C  0.97387617  0.54949957  0.67897401    -0.28500
C894        C  0.99932452  0.56863524  0.66323843     0.44400
C895        C  0.96970932  0.60197353  0.60963861     0.05600
O896        O  0.91994788  0.56581622  0.64635821    -0.57000
H897        H  0.92787687  0.53459718  0.68545925     0.18600
O898        O  0.02541130  0.56958390  0.66866464    -0.63700
H899        H  0.01763669  0.60056590  0.62905578     0.17000
C900        C  0.98974510  0.63217609  0.60556238     0.29300
C901        C  0.98953463  0.64605346  0.57966409    -0.24600
C902        C  0.96924544  0.63027679  0.55760915    -0.23900
C903        C  0.94800354  0.60052652  0.56261412     0.40700
C904        C  0.94864636  0.58659213  0.58816205    -0.26400
O905        O  0.00997019  0.64819769  0.62651634    -0.58200
H906        H  0.00592529  0.66895083  0.57644411     0.16300
O907        O  0.92675451  0.58464682  0.54242063    -0.59700
H908        H  0.93302347  0.56338220  0.59084401     0.14800
H909        H  0.02561930  0.55487830  0.65541630     0.46700
H910        H  0.99942699  0.65419860  0.64020161     0.42000
H911        H  0.90977001  0.58690928  0.54788045     0.45500
H912        H  0.92125063  0.58297175  0.65660750     0.37000
C913        C  0.00534217  0.22356641  0.52070623    -0.27300
C914        C  0.98375294  0.19788444  0.50709680     0.02300
C915        C  0.96231603  0.19925575  0.98991801     0.30400
C916        C  0.96230524  0.22577497  0.98717357    -0.19100
C917        C  0.98365701  0.25134372  0.50117916    -0.28500
C918        C  0.00559770  0.25013892  0.51762044     0.44400
C919        C  0.98387520  0.16989036  0.51098612     0.05600
O920        O  0.94132924  0.17482263  0.97566822    -0.57000
H921        H  0.94530844  0.22626747  0.97436805     0.18600
O922        O  0.02752716  0.27486250  0.53066936    -0.63700
H923        H  0.02199560  0.22298481  0.53399931     0.17000
C924        C  0.00922901  0.16822468  0.00500017     0.29300
C925        C  0.00874059  0.14152877  0.00819509    -0.24600
C926        C  0.98320373  0.11594817  0.51752261    -0.23900
C927        C  0.95805521  0.11794445  0.52439693     0.40700
C928        C  0.95854329  0.14466262  0.52097574    -0.26400
O929        O  0.03408347  0.19217986  0.99433635    -0.58200
H930        H  0.02829990  0.14077635  0.00238049     0.16300
O931        O  0.93255516  0.09381999  0.53365110    -0.59700
H932        H  0.93897391  0.14566704  0.52612074     0.14800
H933        H  0.04234002  0.28530147  0.51526384     0.46700
H934        H  0.04849382  0.19896610  0.01043288     0.42000
H935        H  0.93387269  0.09436682  0.55508241     0.45500
H936        H  0.94976221  0.17568668  0.95623807     0.37000
C937        C  0.96506955  0.33661406  0.59900377    -0.27300
C938        C  0.98090722  0.36750317  0.59905706     0.02300
C939        C  0.99738907  0.38234084  0.57424588     0.30400
C940        C  0.99772732  0.36644699  0.55012783    -0.19100
C941        C  0.98120850  0.33558353  0.54971626    -0.28500
C942        C  0.96464402  0.32071756  0.57449553     0.44400
C943        C  0.97926460  0.38413936  0.62443559     0.05600
O944        O  0.01274450  0.41245263  0.57299031    -0.57000
H945        H  0.01076231  0.37841357  0.53147085     0.18600
O946        O  0.94716086  0.29071269  0.57473054    -0.63700
H947        H  0.95254381  0.32468154  0.61789640     0.17000
C948        C  0.95193302  0.37738365  0.63664406     0.29300
C949        C  0.95080541  0.39451145  0.65928219    -0.24600
C950        C  0.97660421  0.41853932  0.66995806    -0.23900
C951        C  0.00388730  0.42514503  0.65818974     0.40700
C952        C  0.00512551  0.40787864  0.63581267    -0.26400
O953        O  0.92611449  0.35513778  0.62553327    -0.58200
H954        H  0.92970363  0.38929390  0.66829323     0.16300
O955        O  0.02939460  0.44882492  0.66803513    -0.59700
H956        H  0.02638386  0.41322374  0.62715062     0.14800
H957        H  0.92797315  0.28675410  0.56686156     0.46700
H958        H  0.91861323  0.33927592  0.64027445     0.42000
H959        H  0.03472285  0.44174362  0.68563713     0.45500
H960        H  0.99810831  0.41809951  0.56719393     0.37000
C961        C  0.99436807  0.34752638  0.89436151    -0.27300
C962        C  0.97213954  0.35462223  0.89064114     0.02300
C963        C  0.95075310  0.34684823  0.91250452     0.30400
C964        C  0.95217188  0.33290404  0.93771788    -0.19100
C965        C  0.97494883  0.32675544  0.94190518    -0.28500
C966        C  0.99602436  0.33393786  0.91985521     0.44400
C967        C  0.97248147  0.37202038  0.86511100     0.05600
O968        O  0.92901474  0.35384871  0.91000038    -0.57000
H969        H  0.93581462  0.32755845  0.95447662     0.18600
O970        O  0.01901334  0.32894202  0.92351859    -0.63700
H971        H  0.01095622  0.35325995  0.87777367     0.17000
C972        C  0.99768824  0.39920056  0.85843859     0.29300
C973        C  0.99667727  0.41683459  0.83630879    -0.24600
C974        C  0.97074507  0.40785514  0.82063714    -0.23900
C975        C  0.94579519  0.38046243  0.82664193     0.40700
C976        C  0.94681587  0.36265196  0.84862397    -0.26400
O977        O  0.02312236  0.40922696  0.87406085    -0.58200
H978        H  0.01598426  0.43793071  0.83177337     0.16300
O979        O  0.92024536  0.37117145  0.81142893    -0.59700
H980        H  0.92732192  0.34173820  0.85324434     0.14800
H981        H  0.03468096  0.34690912  0.93301559     0.46700
H982        H  0.02074217  0.41930143  0.89109299     0.42000
H983        H  0.90981308  0.37983392  0.82163796     0.45500
H984        H  0.93796248  0.37438697  0.91697151     0.37000
C985        C  0.21201053  0.97630412  0.02482107    -0.27300
C986        C  0.20682169  0.99713805  0.51139380     0.02300
C987        C  0.22926448  0.01961542  0.49457701     0.30400
C988        C  0.25638678  0.02087975  0.49133987    -0.19100
C989        C  0.26148801  0.99998367  0.50486018    -0.28500
C990        C  0.23907385  0.97763618  0.02174649     0.44400
C991        C  0.17765839  0.99470001  0.51464653     0.05600
O992        O  0.22478579  0.04022179  0.48101952    -0.57000
H993        H  0.27353122  0.03829835  0.47847654     0.18600
O994        O  0.24310038  0.95632916  0.03441127    -0.63700
H995        H  0.19499360  0.95893115  0.03782455     0.17000
C996        C  0.15189948  0.96911405  0.00592337     0.29300
C997        C  0.12458841  0.96751914  0.00816482    -0.24600
C998        C  0.12231365  0.99118107  0.51925875    -0.23900
C999        C  0.14815408  0.01625889  0.52936218     0.40700
C1000       C  0.17547546  0.01791900  0.52674987    -0.26400
O1001       O  0.15344671  0.94627181  0.99349396    -0.58200
H1002       H  0.10530369  0.94805875  0.00011129     0.16300
O1003       O  0.14722072  0.03968684  0.54110375    -0.59700
H1004       H  0.19509365  0.03749500  0.53410892     0.14800
H1005       H  0.24548885  0.96098337  0.05538524     0.46700
H1006       H  0.14669501  0.93090306  0.00869694     0.42000
H1007       H  0.14304862  0.03492443  0.56196784     0.45500
H1008       H  0.21627014  0.03159577  0.46189841     0.37000
C1009       C  0.36335753  0.97515204  0.91608409    -0.27300
C1010       C  0.36737730  0.99422880  0.89303569     0.02300
C1011       C  0.35591227  0.01328588  0.89553208     0.30400
C1012       C  0.34210413  0.01403589  0.92134547    -0.19100
C1013       C  0.33942900  0.99591549  0.94486531    -0.28500
C1014       C  0.34930673  0.97562254  0.94158280     0.44400
C1015       C  0.38417913  0.99409166  0.86708365     0.05600
O1016       O  0.35726069  0.03047819  0.87254985    -0.57000
H1017       H  0.33416166  0.02937064  0.92321633     0.18600
O1018       O  0.34556537  0.95621797  0.96328397    -0.63700
H1019       H  0.37166358  0.96008703  0.91453427     0.17000
C1020       C  0.40887720  0.02009108  0.85685933     0.29300
C1021       C  0.42611843  0.01883906  0.83436240    -0.24600
C1022       C  0.41976337  0.99180893  0.82237556    -0.23900
C1023       C  0.39499748  0.96590129  0.83223697     0.40700
C1024       C  0.37728224  0.96717427  0.85419405    -0.26400
O1025       O  0.41725061  0.04666002  0.86960200    -0.58200
H1026       H  0.44523010  0.03890920  0.82699718     0.16300
O1027       O  0.38816649  0.93920972  0.82073214    -0.59700
H1028       H  0.35847903  0.94693385  0.86172160     0.14800
H1029       H  0.32490167  0.94003545  0.96149307     0.46700
H1030       H  0.43093365  0.04856143  0.88531866     0.42000
H1031       H  0.39750975  0.93134196  0.83382571     0.45500
H1032       H  0.36941784  0.05109256  0.87919419     0.37000
C1033       C  0.34760951  0.98112561  0.59934142    -0.27300
C1034       C  0.37812352  0.99974995  0.60112072     0.02300
C1035       C  0.39322951  0.01964372  0.57853511     0.30400
C1036       C  0.37776836  0.02057052  0.55438925    -0.19100
C1037       C  0.34722875  0.00189301  0.55242970    -0.28500
C1038       C  0.33209714  0.98208872  0.57523034     0.44400
C1039       C  0.39418646  0.99765157  0.62621918     0.05600
O1040       O  0.42327230  0.03712220  0.57924739    -0.57000
H1041       H  0.38973113  0.03580346  0.53701293     0.18600
O1042       O  0.30232836  0.96310791  0.57388798    -0.63700
H1043       H  0.33585410  0.96565938  0.61662627     0.17000
C1044       C  0.41097523  0.02219276  0.64402469     0.29300
C1045       C  0.42748877  0.02023871  0.66662295    -0.24600
C1046       C  0.42694416  0.99380092  0.67199301    -0.23900
C1047       C  0.40928578  0.96893084  0.65502012     0.40700
C1048       C  0.39310039  0.97098226  0.63211779    -0.26400
O1049       O  0.41136424  0.04812445  0.63946969    -0.58200
H1050       H  0.44079289  0.03932460  0.67997071     0.16300
O1051       O  0.40821396  0.94279081  0.66040635    -0.59700
H1052       H  0.38004764  0.95190953  0.61866448     0.14800
H1053       H  0.29991629  0.94608128  0.56249594     0.46700
H1054       H  0.39368202  0.04579187  0.64958155     0.42000
H1055       H  0.39119145  0.93188612  0.67358057     0.45500
H1056       H  0.42708423  0.05736076  0.58248270     0.37000
C1057       C  0.75176294  0.96847869  0.50554732    -0.27300
C1058       C  0.77452147  0.98898547  0.98777655     0.02300
C1059       C  0.77066241  0.01013554  0.97287596     0.30400
C1060       C  0.74442471  0.01068321  0.97606587    -0.19100
C1061       C  0.72173274  0.99041442  0.99418066    -0.28500
C1062       C  0.72554384  0.96900956  0.50876238     0.44400
C1063       C  0.80233905  0.98831438  0.98551809     0.05800
O1064       O  0.79194991  0.02956149  0.95428494    -0.57000
H1065       H  0.74184057  0.02708946  0.96436845     0.18600
O1066       O  0.70357201  0.94809401  0.52573692    -0.63700
H1067       H  0.75440674  0.95201777  0.51706565     0.17000
C1068       C  0.82900294  0.01197416  0.49553118     0.29300
C1069       C  0.85463679  0.01012666  0.49521914    -0.24600
C1070       C  0.85429754  0.98457331  0.98548245    -0.23900
C1071       C  0.82760580  0.96118606  0.97469304     0.40700
C1072       C  0.80196972  0.96315419  0.97493401    -0.26400
O1073       O  0.83002664  0.03657060  0.50680054    -0.58200
H1074       H  0.87461707  0.02845014  0.50378505     0.16300
O1075       O  0.82595869  0.93589366  0.96469782    -0.59700
H1076       H  0.78156560  0.94476303  0.96718118     0.14800
H1077       H  0.68979792  0.93288733  0.51205201     0.46700
H1078       H  0.82340014  0.03146888  0.52717127     0.42000
H1079       H  0.83250593  0.94006600  0.94423184     0.45500
H1080       H  0.80095756  0.04888059  0.96415436     0.37000
C1081       C  0.61181638  0.01293729  0.91900087    -0.27300
C1082       C  0.60496747  0.99179590  0.89740645     0.02300
C1083       C  0.61583255  0.97231192  0.89952388     0.30400
C1084       C  0.63254031  0.97352141  0.92363170    -0.19100
C1085       C  0.63837933  0.99389098  0.94588497    -0.28500
C1086       C  0.62849516  0.01417643  0.94305936     0.44400
C1087       C  0.58627886  0.99027476  0.87290343     0.05600
O1088       O  0.61076223  0.95254574  0.87780902    -0.57000
H1089       H  0.64024446  0.95797816  0.92532369     0.18600
O1090       O  0.63486969  0.03515356  0.96382058    -0.63700
H1091       H  0.60382781  0.02826274  0.91738384     0.17000
C1092       C  0.55863020  0.96504369  0.86825165     0.29300
C1093       C  0.54105677  0.96431083  0.84520763    -0.24600
C1094       C  0.55060855  0.98870841  0.82693258    -0.23900
C1095       C  0.57789222  0.01414195  0.83194389     0.40700
C1096       C  0.59562641  0.01476981  0.85476822    -0.26400
O1097       O  0.54838231  0.94128280  0.88644545    -0.58200
H1098       H  0.51977977  0.94487273  0.84177193     0.16300
O1099       O  0.58724415  0.03845056  0.81467455    -0.59700
H1100       H  0.61666753  0.03443740  0.85842611     0.14800
H1101       H  0.65205187  0.05327603  0.95619023     0.46700
H1102       H  0.53881732  0.94566256  0.90265366     0.42000
H1103       H  0.58184004  0.05141070  0.82531519     0.45500
H1104       H  0.59614326  0.93308760  0.88578312     0.37000
C1105       C  0.57452586  0.96442514  0.64471055    -0.27300
C1106       C  0.59378838  0.99069744  0.63016253     0.02300
C1107       C  0.59505887  0.01696174  0.63908819     0.30400
C1108       C  0.57731403  0.01653323  0.66206531    -0.19100
C1109       C  0.55749543  0.99007905  0.67591542    -0.28500
C1110       C  0.55621721  0.96392402  0.66702557     0.44400
C1111       C  0.61032924  0.98968320  0.60429684     0.05600
O1112       O  0.61168833  0.04261029  0.62400184    -0.57000
H1113       H  0.57807016  0.03673626  0.66829376     0.18600
O1114       O  0.53669455  0.93764558  0.67968831    -0.63700
H1115       H  0.57309279  0.94398119  0.63820879     0.17000
C1116       C  0.64081104  0.00919869  0.60068622     0.29300
C1117       C  0.65507995  0.00836485  0.57529046    -0.24600
C1118       C  0.63952860  0.98787185  0.55339349    -0.23900
C1119       C  0.60951111  0.96728104  0.55778322     0.40700
C1120       C  0.59515881  0.96850622  0.58279156    -0.26400
O1121       O  0.65692174  0.02915503  0.62178170    -0.58200
H1122       H  0.67821150  0.02422188  0.57240504     0.16300
O1123       O  0.59386730  0.94600016  0.53754697    -0.59700
H1124       H  0.57185912  0.95303268  0.58516617     0.14800
H1125       H  0.51910989  0.92908136  0.66700983     0.46700
H1126       H  0.66157396  0.01802855  0.63608447     0.42000
H1127       H  0.59665223  0.92930233  0.54284106     0.45500
H1128       H  0.62705890  0.05613894  0.63770163     0.37000
C1129       C  0.74644787  0.76559227  0.52280116    -0.27300
C1130       C  0.77278900  0.77044289  0.51015140     0.02300
C1131       C  0.77247712  0.74809858  0.99307163     0.30400
C1132       C  0.74650329  0.72105329  0.98993228    -0.19100
C1133       C  0.72036733  0.71584803  0.50335983    -0.28500
C1134       C  0.72032879  0.73872803  0.51920304     0.44400
C1135       C  0.80052942  0.79875826  0.51472117     0.05600
O1136       O  0.79751405  0.75244510  0.97941747    -0.57000
H1137       H  0.74693500  0.70388875  0.97740479     0.18600
O1138       O  0.69484658  0.73507042  0.53120576    -0.63700
H1139       H  0.74616383  0.78256646  0.53578217     0.17000
C1140       C  0.80260312  0.82575278  0.00773242     0.29300
C1141       C  0.82976050  0.85186227  0.00950139    -0.24600
C1142       C  0.85527067  0.85178595  0.51864777    -0.23900
C1143       C  0.85260531  0.82485282  0.52754081     0.40700
C1144       C  0.82551729  0.79871653  0.52531004    -0.26400
O1145       O  0.77865397  0.82664612  0.99730934    -0.58200
H1146       H  0.83093414  0.87209836  0.00261694     0.16300
O1147       O  0.87642543  0.82352796  0.53760080    -0.59700
H1148       H  0.82409902  0.77818778  0.53150715     0.14800
H1149       H  0.68662249  0.74268791  0.51650196     0.46700
H1150       H  0.77179819  0.83387587  0.01366335     0.42000
H1151       H  0.87747367  0.82805139  0.55855533     0.45500
H1152       H  0.79835415  0.76258582  0.96102999     0.37000
C1153       C  0.62869203  0.62998033  0.89583576    -0.27300
C1154       C  0.61680689  0.59948692  0.89361956     0.02300
C1155       C  0.62120657  0.58435223  0.91647368     0.30400
C1156       C  0.63621430  0.59952525  0.94142262    -0.19100
C1157       C  0.64669358  0.62978086  0.94432211    -0.28500
C1158       C  0.64325059  0.64507596  0.92097510     0.44400
C1159       C  0.59824449  0.58344401  0.86833640     0.05600
O1160       O  0.60991714  0.55454621  0.91516674    -0.57000
H1161       H  0.63884643  0.58738753  0.95899193     0.18600
O1162       O  0.65272844  0.67449717  0.92296114    -0.63700
H1163       H  0.62583452  0.64202019  0.87832128     0.17000
C1164       C  0.57428690  0.58690630  0.86024859     0.29300
C1165       C  0.55616328  0.57067781  0.83721236    -0.24600
C1166       C  0.56077863  0.54997239  0.82270201    -0.23900
C1167       C  0.58486955  0.54673788  0.83043847     0.40700
C1168       C  0.60362004  0.56367158  0.85285459    -0.26400
O1169       O  0.56772447  0.60528667  0.87538725    -0.58200
H1170       H  0.53762761  0.57326520  0.83145489     0.16300
O1171       O  0.59014102  0.52696017  0.81627631    -0.59700
H1172       H  0.62212366  0.56099867  0.85849303     0.14800
H1173       H  0.63614884  0.67558474  0.93186840     0.46700
H1174       H  0.55631270  0.59374539  0.89246995     0.42000
H1175       H  0.57759723  0.50791579  0.82617637     0.45500
H1176       H  0.59004859  0.54577178  0.92392650     0.37000
C1177       C  0.58902687  0.60406788  0.57775287    -0.27300
C1178       C  0.60309809  0.59883148  0.60080502     0.02300
C1179       C  0.63356265  0.60978384  0.59954382     0.30400
C1180       C  0.64954657  0.62519569  0.57502919    -0.19100
C1181       C  0.63538552  0.62972521  0.55150528    -0.28500
C1182       C  0.60494367  0.61939942  0.55318694     0.44400
C1183       C  0.58559740  0.58070341  0.62550393     0.05600
O1184       O  0.64774716  0.60497992  0.62193508    -0.57000
H1185       H  0.67290848  0.63299127  0.57406305     0.18600
O1186       O  0.59049680  0.62390804  0.53082614    -0.63700
H1187       H  0.56555716  0.59575121  0.57861981     0.17000
C1188       C  0.57495581  0.59212284  0.64673634     0.29300
C1189       C  0.55790652  0.57423636  0.66967028    -0.24600
C1190       C  0.55145410  0.54497492  0.67171873    -0.23900
C1191       C  0.56255951  0.53376002  0.65069850     0.40700
C1192       C  0.57949980  0.55162003  0.62774057    -0.26400
O1193       O  0.58195420  0.62095720  0.64572189    -0.58200
H1194       H  0.54975233  0.58316883  0.68594927     0.16300
O1195       O  0.55764556  0.50566099  0.65298043    -0.59700
H1196       H  0.58788577  0.54277567  0.61160062     0.14800
H1197       H  0.59543096  0.64465895  0.53268691     0.46700
H1198       H  0.56521392  0.62078367  0.63569017     0.42000
H1199       H  0.54158669  0.49388659  0.63910625     0.45500
H1200       H  0.65190933  0.62065497  0.63621314     0.37000
C1201       C  0.22234061  0.20112977  0.51197136    -0.27300
C1202       C  0.20272839  0.19837044  0.98993257     0.02300
C1203       C  0.21061592  0.22225609  0.97107384     0.30400
C1204       C  0.23728600  0.24849108  0.97487910    -0.19100
C1205       C  0.25692563  0.25133528  0.99701748    -0.28500
C1206       C  0.24936583  0.22706731  0.51530872     0.44400
C1207       C  0.17371704  0.17093395  0.98757554     0.05600
O1208       O  0.19241728  0.22020497  0.94882539    -0.57000
H1209       H  0.24250555  0.26675322  0.96051232     0.18600
O1210       O  0.26833342  0.22824080  0.53632453    -0.63700
H1211       H  0.21660094  0.18314728  0.52687754     0.17000
C1212       C  0.17146397  0.14313033  0.98693238     0.29300
C1213       C  0.14374252  0.11755426  0.98666929    -0.24600
C1214       C  0.11777349  0.11903477  0.98733971    -0.23900
C1215       C  0.12016205  0.14701550  0.48740482     0.40700
C1216       C  0.14788480  0.17252731  0.48738879    -0.26400
O1217       O  0.19626898  0.14077139  0.98599100    -0.58200
H1218       H  0.14265874  0.09645707  0.98648339     0.16300
O1219       O  0.09564176  0.14984019  0.48842657    -0.59700
H1220       H  0.14916942  0.19370438  0.48828223     0.14800
H1221       H  0.28199962  0.22337973  0.52626477     0.46700
H1222       H  0.19764073  0.13339271  0.00536099     0.42000
H1223       H  0.09234893  0.15166893  0.50928661     0.45500
H1224       H  0.19721933  0.21092191  0.93267999     0.37000
C1225       C  0.38553059  0.40249073  0.86143862    -0.27300
C1226       C  0.39413879  0.38517320  0.87705780     0.02300
C1227       C  0.41971594  0.38478895  0.86878838     0.30400
C1228       C  0.43644244  0.40180245  0.84535308    -0.19100
C1229       C  0.42799988  0.41937523  0.83012240    -0.28500
C1230       C  0.40243847  0.41971116  0.83820059     0.44400
C1231       C  0.37699162  0.36851969  0.90264255     0.05600
O1232       O  0.42884642  0.36835609  0.88385945    -0.57000
H1233       H  0.45623480  0.40161966  0.83924344     0.18600
O1234       O  0.39398354  0.43692008  0.82356022    -0.63700
H1235       H  0.36580397  0.40283463  0.86746209     0.17000
C1236       C  0.37249890  0.38305259  0.92588389     0.29300
C1237       C  0.35677618  0.36714809  0.95023115    -0.24600
C1238       C  0.34540169  0.33666600  0.95194609    -0.23900
C1239       C  0.35030103  0.32220552  0.92875887     0.40700
C1240       C  0.36572891  0.33810142  0.90423239    -0.26400
O1241       O  0.38454091  0.41299752  0.92549937    -0.58200
H1242       H  0.35336192  0.37873044  0.96780230     0.16300
O1243       O  0.34071980  0.29272093  0.93007765    -0.59700
H1244       H  0.36916620  0.32670469  0.88649094     0.14800
H1245       H  0.40389550  0.45611858  0.83368982     0.46700
H1246       H  0.36791969  0.41629297  0.92140365     0.42000
H1247       H  0.35674069  0.29131375  0.93986450     0.45500
H1248       H  0.44120190  0.38125101  0.89980474     0.37000
C1249       C  0.35407887  0.32986511  0.60665654    -0.27300
C1250       C  0.36385622  0.35978628  0.61070210     0.02300
C1251       C  0.35814734  0.37528336  0.58932931     0.30400
C1252       C  0.34374439  0.36112162  0.56380610    -0.19100
C1253       C  0.33460669  0.33136666  0.55926782    -0.28500
C1254       C  0.33940703  0.31557376  0.58116329     0.44400
C1255       C  0.38225323  0.37554686  0.63594502     0.05600
O1256       O  0.36828907  0.40475943  0.59241932    -0.57000
H1257       H  0.34035788  0.37361601  0.54713457     0.18600
O1258       O  0.33108505  0.28659217  0.57729947    -0.63700
H1259       H  0.35855062  0.31781745  0.62295699     0.17000
C1260       C  0.37175104  0.38649492  0.65781646     0.29300
C1261       C  0.39084230  0.40461846  0.67950512    -0.24600
C1262       C  0.42040443  0.41177931  0.67975221    -0.23900
C1263       C  0.43051227  0.39974538  0.65856469     0.40700
C1264       C  0.41148644  0.38182423  0.63679598    -0.26400
O1265       O  0.34310831  0.38022775  0.65767490    -0.58200
H1266       H  0.38277859  0.41359109  0.69583201     0.16300
O1267       O  0.45922337  0.40621260  0.65844869    -0.59700
H1268       H  0.41978599  0.37354669  0.61999909     0.14800
H1269       H  0.34788077  0.28684359  0.56726845     0.46700
H1270       H  0.33208673  0.36161150  0.66869739     0.42000
H1271       H  0.45978293  0.39177962  0.67185493     0.45500
H1272       H  0.35145035  0.40600939  0.60039083     0.37000
loop_ 
_geom_bond_atom_site_label_1 
_geom_bond_atom_site_label_2 
_geom_bond_distance 
_geom_bond_site_symmetry_2 
_ccdc_geom_bond_type 
C1            C2   1.410       .  A
C1          C642   1.406   1_554  A
C1         C1205   1.489   1_554  S
C2            C3   1.404       .  A
C2            H7   1.083       .  S
C3          C640   1.401       .  A
C3          C617   1.482       .  S
C4            C5   1.401       .  A
C4          C639   1.401       .  A
C4            H8   1.084       .  S
C5            C6   1.403       .  A
C5          C602   1.483       .  S
C6          C637   1.406       .  A
C6            H9   1.083       .  S
C10          C11   1.406       .  A
C10         C651   1.407   1_554  A
C10         C497   1.485       .  S
C11          C12   1.402       .  A
C11          H16   1.084       .  S
C12         C649   1.400   1_554  A
C12         C545   1.480       .  S
C13          C14   1.404       .  A
C13         C648   1.400       .  A
C13          H17   1.084       .  S
C14          C15   1.407       .  A
C14         C521   1.486       .  S
C15         C646   1.407       .  A
C15          H18   1.083       .  S
N19          C24   1.352       .  A
N19          C23   1.353       .  A
N19          H51   1.037       .  S
N20          C27   1.352       .  A
N20          C28   1.351       .  A
N21          C26   1.354       .  A
N21          C25   1.353       .  A
N21          H52   1.038       .  S
N22          C29   1.349       .  A
N22          C30   1.350       .  A
C23          C31   1.389       .  A
C23          C39   1.417       .  A
C24          C40   1.413       .  A
C24          C32   1.386       .  A
C25          C33   1.387       .  A
C25          C42   1.416       .  A
C26          C41   1.416       .  A
C26          C34   1.387       .  A
C27          C39   1.413       .  A
C27          C35   1.386       .  A
C28          C42   1.413       .  A
C28          C36   1.386       .  A
C29          C37   1.386       .  A
C29          C40   1.409       .  A
C30          C38   1.386       .  A
C30          C41   1.411       .  A
C31          C32   1.373       .  A
C31          H43   1.081       .  S
C32          H44   1.082       .  S
C33          C34   1.375       .  A
C33          H45   1.082       .  S
C34          H46   1.082       .  S
C35          C36   1.372       .  A
C35          H47   1.082       .  S
C36          H48   1.082       .  S
C37          C38   1.372       .  A
C37          H49   1.082       .  S
C38          H50   1.082       .  S
C39         C530   1.486       .  S
C40         C593   1.477       .  S
C41         C626   1.487       .  S
C42         C554   1.486       .  S
C53          C58   1.412   1_556  A
C53         C690   1.406       .  A
C53        C1061   1.489       .  S
C54          C55   1.401       .  A
C54         C689   1.406       .  A
C54          H59   1.084       .  S
C55         C692   1.400       .  A
C55         C449   1.480       .  S
C56          C57   1.402   1_556  A
C56         C691   1.400       .  A
C56          H60   1.084   1_556  S
C57          C58   1.408       .  A
C57         C482   1.487       .  S
C58          H61   1.083       .  S
C62          C63   1.401       .  A
C62         C703   1.408   1_554  A
C62         C353   1.479   1_545  S
C63          C64   1.398       .  A
C63          H68   1.084       .  S
C64          C65   1.400   1_554  A
C64         C401   1.477       .  S
C65         C702   1.404   1_545  A
C65          H69   1.084       .  S
C66          C67   1.409   1_565  A
C66         C701   1.404   1_565  A
C66         C377   1.488       .  S
C67         C698   1.408       .  A
C67          H70   1.083   1_545  S
N71          C76   1.357       .  A
N71          C75   1.351       .  A
N71         H103   1.029       .  S
N72          C79   1.349       .  A
N72          C80   1.353       .  A
N73          C78   1.352       .  A
N73          C77   1.357       .  A
N73         H104   1.034       .  S
N74          C81   1.354       .  A
N74          C82   1.350       .  A
C75          C83   1.388   1_565  A
C75          C91   1.417       .  A
C76          C92   1.420       .  A
C76          C84   1.388   1_565  A
C77          C85   1.386   1_565  A
C77          C94   1.417       .  A
C78          C93   1.417       .  A
C78          C86   1.388   1_565  A
C79          C91   1.413       .  A
C79          C87   1.388       .  A
C80          C94   1.412       .  A
C80          C88   1.385       .  A
C81          C89   1.386       .  A
C81          C92   1.418       .  A
C82          C90   1.387       .  A
C82          C93   1.416       .  A
C83          C84   1.373       .  A
C83          H95   1.083       .  S
C84          H96   1.082       .  S
C85          C86   1.373       .  A
C85          H97   1.082       .  S
C86          H98   1.082       .  S
C87          C88   1.371       .  A
C87          H99   1.082       .  S
C88         H100   1.082       .  S
C89          C90   1.373       .  A
C89         H101   1.082       .  S
C90         H102   1.082       .  S
C91         C410   1.475       .  S
C92         C473   1.496       .  S
C93         C458   1.480       .  S
C94         C386   1.491       .  S
C105        C110   1.407   1_556  A
C105        C742   1.406       .  A
C105        C281   1.486   1_556  S
C106        C107   1.404       .  A
C106        C741   1.406       .  A
C106        H111   1.084       .  S
C107        C744   1.404       .  A
C107        C329   1.483       .  S
C108        C109   1.404   1_556  A
C108        C743   1.404       .  A
C108        H112   1.084       .  S
C109        C110   1.406       .  A
C109        C305   1.491       .  S
C110        H113   1.083       .  S
C114        C119   1.412   1_556  A
C114        C751   1.406       .  A
C114        C854   1.491       .  S
C115        C116   1.402       .  A
C115        C750   1.406       .  A
C115        H120   1.082       .  S
C116        C753   1.403       .  A
C116        C242   1.487       .  S
C117        C118   1.403       .  A
C117        C752   1.403   1_554  A
C117        H121   1.083       .  S
C118        C119   1.408       .  A
C118        C266   1.491       .  S
C119        H122   1.083       .  S
N123        C128   1.354       .  A
N123        C127   1.355       .  A
N123        H155   1.036       .  S
N124        C131   1.352       .  A
N124        C132   1.352       .  A
N125        C130   1.353       .  A
N125        C129   1.353       .  A
N125        H156   1.036       .  S
N126        C133   1.351       .  A
N126        C134   1.352       .  A
C127        C135   1.388       .  A
C127        C143   1.419       .  A
C128        C144   1.417       .  A
C128        C136   1.387       .  A
C129        C137   1.388       .  A
C129        C146   1.417       .  A
C130        C145   1.415       .  A
C130        C138   1.387       .  A
C131        C143   1.414       .  A
C131        C139   1.386       .  A
C132        C146   1.415       .  A
C132        C140   1.387       .  A
C133        C141   1.387       .  A
C133        C144   1.414       .  A
C134        C142   1.385       .  A
C134        C145   1.412       .  A
C135        C136   1.375       .  A
C135        H147   1.082       .  S
C136        H148   1.082       .  S
C137        C138   1.375       .  A
C137        H149   1.082       .  S
C138        H150   1.083       .  S
C139        C140   1.372       .  A
C139        H151   1.082       .  S
C140        H152   1.082       .  S
C141        C142   1.371       .  A
C141        H153   1.082       .  S
C142        H154   1.082       .  S
C143        C257   1.487       .  S
C144        C314   1.485       .  S
C145        C338   1.485       .  S
C146        C233   1.484       .  S
O157       Mg159   2.146       .  S
O157       Mg801   2.155   1_554  S
O157        C192   1.235       .  S
C158        H197   1.081       .  S
C158        O171   1.235       .  S
C158        O195   1.269   1_545  A
Mg159       O824   2.159   1_544  S
Mg159       O199   2.252       .  S
Mg159       O170   2.301   1_545  S
Mg159       O839   2.307   1_554  S
O160       Mg185   2.152   1_565  S
O160       Mg838   2.163   1_554  S
O160        C181   1.237       .  S
O161        C192   1.269   1_655  A
O161       Mg185   2.299       .  S
C162        C209   1.488       .  S
C162        O164   1.274   1_655  A
C162        O176   1.278       .  A
O163        C191   1.270       .  A
O163       Mg165   2.300       .  S
O164       Mg196   2.270       .  S
Mg165       O171   2.140   1_455  S
Mg165       O793   2.155       .  S
Mg165       O179   2.264       .  S
Mg165       O803   2.306       .  S
C166        C506   1.491       .  S
C166        O204   1.274       .  A
C166        O172   1.276       .  A
O167        C174   1.276   1_455  A
O167       Mg801   2.306   1_554  S
H168        C181   1.081       .  S
C169        H194   1.081       .  S
C169        O183   1.235       .  S
C169        O184   1.270       .  A
O170        C193   1.270       .  A
O171       Mg821   2.155       .  S
O172       Mg838   2.301   1_554  S
C173        C434   1.494       .  S
C173        O186   1.275       .  A
C173        O178   1.274   1_565  A
C174        C290   1.492       .  S
C174        O201   1.272       .  A
Mg175       O182   2.156   1_655  S
Mg175       O819   2.153   1_554  S
Mg175       O177   2.302       .  S
Mg175       O204   2.278       .  S
Mg175       O812   2.321   1_554  S
O176       Mg811   2.321       .  S
O177        C181   1.271       .  A
O178       Mg821   2.292       .  S
O179        C198   1.271       .  A
O180        C200   1.278       .  A
O180       Mg832   2.320   1_554  S
O182       Mg832   2.158   1_554  S
O182        C193   1.236       .  S
O183       Mg202   2.161       .  S
O183       Mg811   2.153       .  S
O184       Mg196   2.305   1_655  S
Mg185       O807   2.155   1_554  S
Mg185       O201   2.267       .  S
Mg185       O814   2.292   1_554  S
O186       Mg202   2.292       .  S
H187        C192   1.081       .  S
O188       Mg196   2.152       .  S
O188       Mg795   2.159   1_565  S
O188        C191   1.235   1_565  S
H189        C191   1.081       .  S
H190        C193   1.081       .  S
O195       Mg202   2.294       .  S
Mg196       O818   2.158       .  S
Mg196       O816   2.320       .  S
C198        C578   1.489       .  S
C198        O203   1.275       .  A
O199        C200   1.270   1_545  A
C200        C362   1.490       .  S
Mg202       O796   2.163       .  S
Mg202       O808   2.301       .  S
O203       Mg795   2.307       .  S
C205        C206   1.404       .  A
C205        C210   1.401       .  A
C205        H215   1.083       .  S
C206        C843   1.408   1_655  A
C206        C211   1.486       .  S
C207        C208   1.401       .  A
C207        C842   1.408   1_455  A
C207        O212   1.372       .  S
C208        C845   1.408   1_455  A
C208        H213   1.083       .  S
C209        C210   1.412       .  A
C209        C844   1.408   1_655  A
C210        O214   1.371       .  S
C211        C220   1.403   1_655  A
C211        C852   1.409       .  A
O212        H228   0.992   1_556  S
O214        H225   0.992       .  S
C216        C217   1.401       .  A
C216        C847   1.409   1_554  A
C216        O221   1.372       .  S
C217        C854   1.405   1_554  A
C217        H222   1.083       .  S
C218        C219   1.415   1_655  A
C218        C853   1.405       .  A
C218        C750   1.491       .  S
C219        C220   1.401       .  A
C219        O223   1.372       .  S
C220        H224   1.084       .  S
O221        H226   0.992       .  S
O223        H227   0.991       .  S
C229        C230   1.404       .  A
C229        C234   1.398       .  A
C229        H239   1.084   1_655  S
C230        C231   1.410       .  A
C230        C235   1.482       .  S
C231        C232   1.399       .  A
C231        O236   1.371       .  S
C232        C233   1.402       .  A
C232        H237   1.083       .  S
C233        C234   1.406       .  A
C234        O238   1.372   1_655  S
C235        C240   1.407       .  A
C235        C244   1.404       .  A
O236        H252   0.992       .  S
O238        H249   0.992       .  S
C240        C241   1.396       .  A
C240        O245   1.372   1_655  S
C241        C242   1.405       .  A
C241        H246   1.083   1_655  S
C242        C243   1.413       .  A
C243        C244   1.401       .  A
C243        O247   1.372       .  S
C244        H248   1.084       .  S
O245        H250   0.992   1_455  S
O247        H251   0.992       .  S
C253        C254   1.406       .  A
C253        C258   1.402       .  A
C253        H263   1.083   1_655  S
C254        C255   1.412       .  A
C254        C259   1.488       .  S
C255        C256   1.400       .  A
C255        O260   1.371       .  S
C256        C257   1.402       .  A
C256        H261   1.084       .  S
C257        C258   1.406       .  A
C258        O262   1.371   1_655  S
C259        C264   1.410       .  A
C259        C268   1.403       .  A
O260        H276   0.992       .  S
O262        H273   0.992       .  S
C264        C265   1.404       .  A
C264        O269   1.371   1_655  S
C265        C266   1.406       .  A
C265        H270   1.083   1_655  S
C266        C267   1.412       .  A
C267        C268   1.398       .  A
C267        O271   1.372       .  S
C268        H272   1.083       .  S
O269        H274   0.992   1_455  S
O271        H275   0.992       .  S
C277        C278   1.404   1_455  A
C277        C282   1.400       .  A
C277        H287   1.083       .  S
C278        C915   1.411   1_554  A
C278        C283   1.488       .  S
C279        C280   1.402       .  A
C279        C914   1.411       .  A
C279        O284   1.372       .  S
C280        C917   1.405       .  A
C280        H285   1.084       .  S
C281        C282   1.410   1_655  A
C281        C916   1.405   1_554  A
C282        O286   1.371       .  S
C283        C292   1.404       .  A
C283        C924   1.408   1_655  A
O284        H300   0.992       .  S
O286        H297   0.992       .  S
C288        C289   1.401       .  A
C288        C919   1.408   1_455  A
C288        O293   1.372       .  S
C289        C926   1.408   1_455  A
C289        H294   1.083       .  S
C290        C291   1.415       .  A
C290        C925   1.408   1_655  A
C291        C292   1.403       .  A
C291        O295   1.371       .  S
C292        H296   1.084       .  S
O293        H298   0.992       .  S
O295        H299   0.992       .  S
C301        C302   1.406       .  A
C301        C306   1.402       .  A
C301        H311   1.083       .  S
C302        C303   1.411       .  A
C302        C307   1.492       .  S
C303        C304   1.399       .  A
C303        O308   1.372   1_655  S
C304        C305   1.406       .  A
C304        H309   1.083   1_655  S
C305        C306   1.412       .  A
C306        O310   1.371       .  S
C307        C312   1.413       .  A
C307        C316   1.408   1_655  A
O308        H324   0.992   1_455  S
O310        H321   0.992       .  S
C312        C313   1.402       .  A
C312        O317   1.372       .  S
C313        C314   1.400       .  A
C313        H318   1.084       .  S
C314        C315   1.405   1_655  A
C315        C316   1.400       .  A
C315        O319   1.372       .  S
C316        H320   1.083       .  S
O317        H322   0.992       .  S
O319        H323   0.992       .  S
C325        C326   1.406       .  A
C325        C330   1.403       .  A
C325        H335   1.083   1_655  S
C326        C327   1.410       .  A
C326        C331   1.487       .  S
C327        C328   1.398       .  A
C327        O332   1.372       .  S
C328        C329   1.403       .  A
C328        H333   1.084       .  S
C329        C330   1.409       .  A
C330        O334   1.372   1_655  S
C331        C336   1.411       .  A
C331        C340   1.407       .  A
O332        H348   0.992       .  S
O334        H345   0.992       .  S
C336        C337   1.399       .  A
C336        O341   1.372   1_655  S
C337        C338   1.401       .  A
C337        H342   1.084   1_655  S
C338        C339   1.405       .  A
C339        C340   1.401       .  A
C339        O343   1.371       .  S
C340        H344   1.083       .  S
O341        H346   0.992       .  S
O343        H347   0.992       .  S
C349        C354   1.397       .  A
C349        C986   1.401       .  A
C349        H359   1.083       .  S
C350        C351   1.411   1_564  A
C350        C985   1.401       .  A
C350        C355   1.482       .  S
C351        C352   1.403       .  A
C351        O356   1.371       .  S
C352        C353   1.403   1_546  A
C352        H357   1.084       .  S
C353        C990   1.409       .  A
C354        C989   1.409       .  A
C354        O358   1.373       .  S
C355        C364   1.401   1_565  A
C355        C996   1.407       .  A
O356        H372   0.992       .  S
O358        H369   0.992       .  S
C360        C361   1.400       .  A
C360        C991   1.407       .  A
C360        O365   1.372       .  S
C361        C998   1.407       .  A
C361        H366   1.083       .  S
C362        C363   1.416   1_565  A
C362        C997   1.407       .  A
C363        C364   1.401       .  A
C363        O367   1.371       .  S
C364        H368   1.084       .  S
O365        H370   0.992       .  S
O367        H371   0.992       .  S
C373        C374   1.404       .  A
C373        C378   1.397       .  A
C373        H383   1.084       .  S
C374        C375   1.412   1_565  A
C374        C379   1.491       .  S
C375        C376   1.407       .  A
C375        O380   1.373       .  S
C376        C377   1.405   1_545  A
C376        H381   1.083       .  S
C377        C378   1.412       .  A
C378        O382   1.372       .  S
C379        C384   1.412   1_565  A
C379        C388   1.407       .  A
O380        H396   0.992       .  S
O382        H393   0.992       .  S
C384        C385   1.402       .  A
C384        O389   1.371       .  S
C385        C386   1.403   1_545  A
C385        H390   1.083       .  S
C386        C387   1.406       .  A
C387        C388   1.401       .  A
C387        O391   1.371       .  S
C388        H392   1.084       .  S
O389        H394   0.992       .  S
O391        H395   0.992       .  S
C397        C398   1.401       .  A
C397        C402   1.397       .  A
C397        H407   1.084       .  S
C398        C399   1.406   1_565  A
C398        C403   1.471       .  S
C399        C400   1.396       .  A
C399        O404   1.373       .  S
C400        C401   1.403       .  A
C400        H405   1.084       .  S
C401        C402   1.411   1_545  A
C402        O406   1.372       .  S
C403        C408   1.408   1_565  A
C403        C412   1.403       .  A
O404        H420   0.992       .  S
O406        H417   0.992       .  S
C408        C409   1.395       .  A
C408        O413   1.371       .  S
C409        C410   1.400   1_545  A
C409        H414   1.084       .  S
C410        C411   1.404       .  A
C411        C412   1.396       .  A
C411        O415   1.371       .  S
C412        H416   1.084       .  S
O413        H418   0.992       .  S
O415        H419   0.992       .  S
C421        C426   1.402       .  A
C421       C1058   1.404   1_554  A
C421        H431   1.084       .  S
C422        C423   1.408   1_565  A
C422       C1057   1.404       .  A
C422        C427   1.485       .  S
C423        C424   1.403       .  A
C423        O428   1.372       .  S
C424        C425   1.407   1_545  A
C424        H429   1.084       .  S
C425       C1062   1.411       .  A
C425        C689   1.489       .  S
C426       C1061   1.411   1_554  A
C426        O430   1.371       .  S
C427        C436   1.404       .  A
C427       C1068   1.406   1_565  A
O428        H444   0.992       .  S
O430        H441   0.992       .  S
C432        C433   1.400       .  A
C432       C1063   1.406   1_545  A
C432        O437   1.372   1_556  S
C433       C1070   1.411   1_545  A
C433        H438   1.083   1_556  S
C434        C435   1.414       .  A
C434       C1069   1.411   1_565  A
C435        C436   1.404       .  A
C435        O439   1.371       .  S
C436        H440   1.084       .  S
O437        H442   0.992       .  S
O439        H443   0.992       .  S
C445        C446   1.401   1_545  A
C445        C450   1.397       .  A
C445        H455   1.084       .  S
C446        C447   1.407       .  A
C446        C451   1.475       .  S
C447        C448   1.400       .  A
C447        O452   1.372       .  S
C448        C449   1.404       .  A
C448        H453   1.083       .  S
C449        C450   1.410   1_565  A
C450        O454   1.372       .  S
C451        C456   1.409       .  A
C451        C460   1.402   1_565  A
O452        H468   0.992       .  S
O454        H465   0.992       .  S
C456        C457   1.398       .  A
C456        O461   1.372       .  S
C457        C458   1.401       .  A
C457        H462   1.084       .  S
C458        C459   1.405   1_565  A
C459        C460   1.398       .  A
C459        O463   1.371       .  S
C460        H464   1.084       .  S
O461        H466   0.992       .  S
O463        H467   0.992       .  S
C469        C470   1.407       .  A
C469        C474   1.402       .  A
C469        H479   1.083       .  S
C470        C471   1.413   1_565  A
C470        C475   1.494       .  S
C471        C472   1.406       .  A
C471        O476   1.373       .  S
C472        C473   1.405   1_545  A
C472        H477   1.084       .  S
C473        C474   1.406       .  A
C474        O478   1.371       .  S
C475        C480   1.413   1_565  A
C475        C484   1.405       .  A
O476        H492   0.992       .  S
O478        H489   0.992       .  S
C480        C481   1.405       .  A
C480        O485   1.371       .  S
C481        C482   1.404   1_545  A
C481        H486   1.083       .  S
C482        C483   1.410       .  A
C483        C484   1.399       .  A
C483        O487   1.372       .  S
C484        H488   1.083       .  S
O485        H490   0.992       .  S
O487        H491   0.992       .  S
C493        C494   1.404       .  A
C493        C498   1.401       .  A
C493        H503   1.083       .  S
C494       C1131   1.410   1_554  A
C494        C499   1.487       .  S
C495        C496   1.400       .  A
C495       C1130   1.410       .  A
C495        O500   1.372       .  S
C496       C1133   1.404       .  A
C496        H501   1.083       .  S
C497        C498   1.411       .  A
C497       C1132   1.404   1_554  A
C498        O502   1.372       .  S
C499        C508   1.404       .  A
C499       C1140   1.407       .  A
O500        H516   0.992       .  S
O502        H513   0.992       .  S
C504        C505   1.401       .  A
C504       C1135   1.407       .  A
C504        O509   1.372       .  S
C505       C1142   1.409       .  A
C505        H510   1.083       .  S
C506        C507   1.414       .  A
C506       C1141   1.409       .  A
C507        C508   1.401       .  A
C507        O511   1.371       .  S
C508        H512   1.084       .  S
O509        H514   0.992       .  S
O511        H515   0.992       .  S
C517        C518   1.404       .  A
C517        C522   1.399       .  A
C517        H527   1.083       .  S
C518        C519   1.410       .  A
C518        C523   1.485       .  S
C519        C520   1.399       .  A
C519        O524   1.372       .  S
C520        C521   1.406       .  A
C520        H525   1.084       .  S
C521        C522   1.410       .  A
C522        O526   1.371       .  S
C523        C528   1.412       .  A
C523        C532   1.405       .  A
O524        H540   0.992       .  S
O526        H537   0.992       .  S
C528        C529   1.398       .  A
C528        O533   1.372       .  S
C529        C530   1.402       .  A
C529        H534   1.084       .  S
C530        C531   1.407       .  A
C531        C532   1.399       .  A
C531        O535   1.372       .  S
C532        H536   1.083       .  S
O533        H538   0.992       .  S
O535        H539   0.992       .  S
C541        C542   1.401       .  A
C541        C546   1.399       .  A
C541        H551   1.084       .  S
C542        C543   1.406       .  A
C542        C547   1.474       .  S
C543        C544   1.400       .  A
C543        O548   1.371       .  S
C544        C545   1.404       .  A
C544        H549   1.083       .  S
C545        C546   1.411       .  A
C546        O550   1.372       .  S
C547        C552   1.406       .  A
C547        C556   1.402       .  A
O548        H564   0.992       .  S
O550        H561   0.992       .  S
C552        C553   1.400       .  A
C552        O557   1.371       .  S
C553        C554   1.404       .  A
C553        H558   1.084       .  S
C554        C555   1.407       .  A
C555        C556   1.399       .  A
C555        O559   1.372       .  S
C556        H560   1.084       .  S
O557        H562   0.991       .  S
O559        H563   0.992       .  S
C565        C570   1.399       .  A
C565       C1202   1.404   1_554  A
C565        H575   1.083       .  S
C566        C567   1.409       .  A
C566       C1201   1.404       .  A
C566        C571   1.487       .  S
C567        C568   1.400       .  A
C567        O572   1.372       .  S
C568        C569   1.408       .  A
C568        H573   1.083       .  S
C569       C1206   1.411       .  A
C569        C637   1.489       .  S
C570       C1205   1.411   1_554  A
C570        O574   1.371       .  S
C571        C576   1.409       .  A
C571       C1216   1.403       .  A
O572        H588   0.992       .  S
O574        H585   0.992       .  S
C576        C577   1.402       .  A
C576        O581   1.373       .  S
C577        C578   1.408       .  A
C577        H582   1.083       .  S
C578       C1215   1.414       .  A
C579        C580   1.401       .  A
C579       C1214   1.414       .  A
C579        O583   1.372       .  S
C580       C1207   1.403       .  A
C580        H584   1.084       .  S
O581        H586   0.992       .  S
O583        H587   0.992   1_556  S
C589        C590   1.404       .  A
C589        C594   1.397       .  A
C589        H599   1.083       .  S
C590        C591   1.409       .  A
C590        C595   1.477       .  S
C591        C592   1.397       .  A
C591        O596   1.372       .  S
C592        C593   1.400       .  A
C592        H597   1.084       .  S
C593        C594   1.404       .  A
C594        O598   1.371       .  S
C595        C600   1.406       .  A
C595        C604   1.403       .  A
O596        H612   0.992       .  S
O598        H609   0.992       .  S
C600        C601   1.397       .  A
C600        O605   1.372       .  S
C601        C602   1.405       .  A
C601        H606   1.083       .  S
C602        C603   1.411       .  A
C603        C604   1.399       .  A
C603        O607   1.371       .  S
C604        H608   1.084       .  S
O605        H610   0.992       .  S
O607        H611   0.992       .  S
C613        C614   1.403       .  A
C613        C618   1.402       .  A
C613        H623   1.083       .  S
C614        C615   1.406       .  A
C614        C619   1.476       .  S
C615        C616   1.398       .  A
C615        O620   1.372       .  S
C616        C617   1.405       .  A
C616        H621   1.084       .  S
C617        C618   1.410       .  A
C618        O622   1.372       .  S
C619        C624   1.407       .  A
C619        C628   1.402       .  A
O620        H636   0.992       .  S
O622        H633   0.992       .  S
C624        C625   1.401       .  A
C624        O629   1.371       .  S
C625        C626   1.404       .  A
C625        H630   1.083       .  S
C626        C627   1.408       .  A
C627        C628   1.399       .  A
C627        O631   1.371       .  S
C628        H632   1.084       .  S
O629        H634   0.992       .  S
O631        H635   0.992       .  S
C637        C638   1.410       .  A
C638        C639   1.404       .  A
C638        H643   1.083       .  S
C639       C1253   1.482       .  S
C640        C641   1.401   1_554  A
C640        H644   1.084       .  S
C641        C642   1.403       .  A
C641       C1238   1.483       .  S
C642        H645   1.083       .  S
C646        C647   1.406       .  A
C646       C1133   1.485       .  S
C647        C648   1.402       .  A
C647        H652   1.084       .  S
C648       C1181   1.480       .  S
C649        C650   1.404       .  A
C649        H653   1.084       .  S
C650        C651   1.407       .  A
C650       C1157   1.486       .  S
C651        H654   1.083       .  S
N655        C660   1.352       .  A
N655        C659   1.353       .  A
N655        H687   1.037       .  S
N656        C663   1.352       .  A
N656        C664   1.351       .  A
N657        C662   1.354       .  A
N657        C661   1.353       .  A
N657        H688   1.038       .  S
N658        C665   1.349       .  A
N658        C666   1.350       .  A
C659        C667   1.389       .  A
C659        C675   1.417       .  A
C660        C676   1.413       .  A
C660        C668   1.386       .  A
C661        C669   1.387       .  A
C661        C678   1.416       .  A
C662        C677   1.416       .  A
C662        C670   1.387       .  A
C663        C675   1.413       .  A
C663        C671   1.386       .  A
C664        C678   1.413       .  A
C664        C672   1.386       .  A
C665        C673   1.386       .  A
C665        C676   1.409       .  A
C666        C674   1.386       .  A
C666        C677   1.411       .  A
C667        C668   1.373       .  A
C667        H679   1.081       .  S
C668        H680   1.082       .  S
C669        C670   1.375       .  A
C669        H681   1.082       .  S
C670        H682   1.082       .  S
C671        C672   1.372       .  A
C671        H683   1.082       .  S
C672        H684   1.082       .  S
C673        C674   1.372       .  A
C673        H685   1.082       .  S
C674        H686   1.082       .  S
C675       C1166   1.486       .  S
C676       C1229   1.477       .  S
C677       C1262   1.487       .  S
C678       C1190   1.486       .  S
C689        C694   1.412       .  A
C690        C691   1.401       .  A
C690        H695   1.084       .  S
C691       C1085   1.480       .  S
C692        C693   1.402       .  A
C692        H696   1.084       .  S
C693        C694   1.408       .  A
C693       C1118   1.487       .  S
C694        H697   1.083       .  S
C698        C699   1.401       .  A
C698        C989   1.479   1_545  S
C699        C700   1.398       .  A
C699        H704   1.084       .  S
C700        C701   1.400       .  A
C700       C1037   1.477       .  S
C701        H705   1.084       .  S
C702        C703   1.409   1_565  A
C702       C1013   1.488       .  S
C703        H706   1.083   1_545  S
N707        C712   1.357       .  A
N707        C711   1.351       .  A
N707        H739   1.029       .  S
N708        C715   1.349       .  A
N708        C716   1.353       .  A
N709        C714   1.352       .  A
N709        C713   1.357       .  A
N709        H740   1.034       .  S
N710        C717   1.354       .  A
N710        C718   1.350       .  A
C711        C719   1.388   1_565  A
C711        C727   1.417       .  A
C712        C728   1.420       .  A
C712        C720   1.388   1_565  A
C713        C721   1.386   1_565  A
C713        C730   1.417       .  A
C714        C729   1.417       .  A
C714        C722   1.388   1_565  A
C715        C727   1.413       .  A
C715        C723   1.388       .  A
C716        C730   1.412       .  A
C716        C724   1.385       .  A
C717        C725   1.386       .  A
C717        C728   1.418       .  A
C718        C726   1.387       .  A
C718        C729   1.416       .  A
C719        C720   1.373       .  A
C719        H731   1.083       .  S
C720        H732   1.082       .  S
C721        C722   1.373       .  A
C721        H733   1.082       .  S
C722        H734   1.082       .  S
C723        C724   1.371       .  A
C723        H735   1.082       .  S
C724        H736   1.082       .  S
C725        C726   1.373       .  A
C725        H737   1.082       .  S
C726        H738   1.082       .  S
C727       C1046   1.475       .  S
C728       C1109   1.496       .  S
C729       C1094   1.480       .  S
C730       C1022   1.491       .  S
C741        C746   1.407       .  A
C741        C917   1.486       .  S
C742        C743   1.404       .  A
C742        H747   1.084       .  S
C743        C965   1.483       .  S
C744        C745   1.404       .  A
C744        H748   1.084       .  S
C745        C746   1.406       .  A
C745        C941   1.491       .  S
C746        H749   1.083       .  S
C750        C755   1.412       .  A
C751        C752   1.402       .  A
C751        H756   1.082       .  S
C752        C878   1.487       .  S
C753        C754   1.403       .  A
C753        H757   1.083       .  S
C754        C755   1.408       .  A
C754        C902   1.491       .  S
C755        H758   1.083       .  S
N759        C764   1.354       .  A
N759        C763   1.355       .  A
N759        H791   1.036       .  S
N760        C767   1.352       .  A
N760        C768   1.352       .  A
N761        C766   1.353       .  A
N761        C765   1.353       .  A
N761        H792   1.036       .  S
N762        C769   1.351       .  A
N762        C770   1.352       .  A
C763        C771   1.388       .  A
C763        C779   1.419       .  A
C764        C780   1.417       .  A
C764        C772   1.387       .  A
C765        C773   1.388       .  A
C765        C782   1.417       .  A
C766        C781   1.415       .  A
C766        C774   1.387       .  A
C767        C779   1.414       .  A
C767        C775   1.386       .  A
C768        C782   1.415       .  A
C768        C776   1.387       .  A
C769        C777   1.387       .  A
C769        C780   1.414       .  A
C770        C778   1.385       .  A
C770        C781   1.412       .  A
C771        C772   1.375       .  A
C771        H783   1.082       .  S
C772        H784   1.082       .  S
C773        C774   1.375       .  A
C773        H785   1.082       .  S
C774        H786   1.083       .  S
C775        C776   1.372       .  A
C775        H787   1.082       .  S
C776        H788   1.082       .  S
C777        C778   1.371       .  A
C777        H789   1.082       .  S
C778        H790   1.082       .  S
C779        C893   1.487       .  S
C780        C950   1.485       .  S
C781        C974   1.485       .  S
C782        C869   1.484       .  S
O793       Mg795   2.146       .  S
O793        C828   1.235       .  S
C794        H833   1.081       .  S
C794        O807   1.235       .  S
C794        O831   1.269   1_545  A
Mg795       O835   2.252       .  S
Mg795       O806   2.301   1_545  S
O796       Mg821   2.152   1_565  S
O796        C817   1.237       .  S
O797        C828   1.269   1_655  A
O797       Mg821   2.299       .  S
C798        C845   1.488       .  S
C798        O800   1.274   1_655  A
C798        O812   1.278       .  A
O799        C827   1.270       .  A
O799       Mg801   2.300       .  S
O800       Mg832   2.270       .  S
Mg801       O807   2.140   1_455  S
Mg801       O815   2.264       .  S
C802       C1142   1.491       .  S
C802        O840   1.274       .  A
C802        O808   1.276       .  A
O803        C810   1.276   1_455  A
H804        C817   1.081       .  S
C805        H830   1.081       .  S
C805        O819   1.235       .  S
C805        O820   1.270       .  A
O806        C829   1.270       .  A
C809       C1070   1.494       .  S
C809        O822   1.275       .  A
C809        O814   1.274   1_565  A
C810        C926   1.492       .  S
C810        O837   1.272       .  A
Mg811       O818   2.156   1_655  S
Mg811       O813   2.302       .  S
Mg811       O840   2.278       .  S
O813        C817   1.271       .  A
O815        C834   1.271       .  A
O816        C836   1.278       .  A
O818        C829   1.236       .  S
O819       Mg838   2.161       .  S
O820       Mg832   2.305   1_655  S
Mg821       O837   2.267       .  S
O822       Mg838   2.292       .  S
H823        C828   1.081       .  S
O824       Mg832   2.152       .  S
O824        C827   1.235   1_565  S
H825        C827   1.081       .  S
H826        C829   1.081       .  S
O831       Mg838   2.294       .  S
C834       C1214   1.489       .  S
C834        O839   1.275       .  A
O835        C836   1.270   1_545  A
C836        C998   1.490       .  S
C841        C842   1.404       .  A
C841        C846   1.401       .  A
C841        H851   1.083       .  S
C842        C847   1.486       .  S
C843        C844   1.401       .  A
C843        O848   1.372       .  S
C844        H849   1.083       .  S
C845        C846   1.412       .  A
C846        O850   1.371       .  S
C847        C856   1.403   1_655  A
O848        H864   0.992       .  S
O850        H861   0.992       .  S
C852        C853   1.401       .  A
C852        O857   1.372       .  S
C853        H858   1.083       .  S
C854        C855   1.415   1_655  A
C855        C856   1.401       .  A
C855        O859   1.372       .  S
C856        H860   1.084       .  S
O857        H862   0.992       .  S
O859        H863   0.991       .  S
C865        C866   1.404       .  A
C865        C870   1.398       .  A
C865        H875   1.084   1_655  S
C866        C867   1.410       .  A
C866        C871   1.482       .  S
C867        C868   1.399       .  A
C867        O872   1.371       .  S
C868        C869   1.402       .  A
C868        H873   1.083       .  S
C869        C870   1.406       .  A
C870        O874   1.372   1_655  S
C871        C876   1.407       .  A
C871        C880   1.404       .  A
O872        H888   0.992       .  S
O874        H885   0.992       .  S
C876        C877   1.396       .  A
C876        O881   1.372   1_655  S
C877        C878   1.405       .  A
C877        H882   1.083   1_655  S
C878        C879   1.413       .  A
C879        C880   1.401       .  A
C879        O883   1.372       .  S
C880        H884   1.084       .  S
O881        H886   0.992   1_455  S
O883        H887   0.992       .  S
C889        C890   1.406       .  A
C889        C894   1.402       .  A
C889        H899   1.083   1_655  S
C890        C891   1.412       .  A
C890        C895   1.488       .  S
C891        C892   1.400       .  A
C891        O896   1.371       .  S
C892        C893   1.402       .  A
C892        H897   1.084       .  S
C893        C894   1.406       .  A
C894        O898   1.371   1_655  S
C895        C900   1.410       .  A
C895        C904   1.403       .  A
O896        H912   0.992       .  S
O898        H909   0.992       .  S
C900        C901   1.404       .  A
C900        O905   1.371   1_655  S
C901        C902   1.406       .  A
C901        H906   1.083   1_655  S
C902        C903   1.412       .  A
C903        C904   1.398       .  A
C903        O907   1.372       .  S
C904        H908   1.083       .  S
O905        H910   0.992   1_455  S
O907        H911   0.992       .  S
C913        C914   1.404   1_455  A
C913        C918   1.400       .  A
C913        H923   1.083       .  S
C914        C919   1.488       .  S
C915        C916   1.402       .  A
C915        O920   1.372       .  S
C916        H921   1.084       .  S
C917        C918   1.410   1_655  A
C918        O922   1.371       .  S
C919        C928   1.404       .  A
O920        H936   0.992       .  S
O922        H933   0.992       .  S
C924        C925   1.401       .  A
C924        O929   1.372   1_554  S
C925        H930   1.083       .  S
C926        C927   1.415       .  A
C927        C928   1.403       .  A
C927        O931   1.371       .  S
C928        H932   1.084       .  S
O929        H934   0.992   1_556  S
O931        H935   0.992       .  S
C937        C938   1.406       .  A
C937        C942   1.402       .  A
C937        H947   1.083       .  S
C938        C939   1.411       .  A
C938        C943   1.492       .  S
C939        C940   1.399       .  A
C939        O944   1.372   1_655  S
C940        C941   1.406       .  A
C940        H945   1.083   1_655  S
C941        C942   1.412       .  A
C942        O946   1.371       .  S
C943        C948   1.413       .  A
C943        C952   1.408   1_655  A
O944        H960   0.992   1_455  S
O946        H957   0.992       .  S
C948        C949   1.402       .  A
C948        O953   1.372       .  S
C949        C950   1.400       .  A
C949        H954   1.084       .  S
C950        C951   1.405   1_655  A
C951        C952   1.400       .  A
C951        O955   1.372       .  S
C952        H956   1.083       .  S
O953        H958   0.992       .  S
O955        H959   0.992       .  S
C961        C962   1.406       .  A
C961        C966   1.403       .  A
C961        H971   1.083   1_655  S
C962        C963   1.410       .  A
C962        C967   1.487       .  S
C963        C964   1.398       .  A
C963        O968   1.372       .  S
C964        C965   1.403       .  A
C964        H969   1.084       .  S
C965        C966   1.409       .  A
C966        O970   1.372   1_655  S
C967        C972   1.411       .  A
C967        C976   1.407       .  A
O968        H984   0.992       .  S
O970        H981   0.992       .  S
C972        C973   1.399       .  A
C972        O977   1.372   1_655  S
C973        C974   1.401       .  A
C973        H978   1.084   1_655  S
C974        C975   1.405       .  A
C975        C976   1.401       .  A
C975        O979   1.371       .  S
C976        H980   1.083       .  S
O977        H982   0.992       .  S
O979        H983   0.992       .  S
C985        C990   1.397       .  A
C985        H995   1.083       .  S
C986        C987   1.411   1_565  A
C986        C991   1.482       .  S
C987        C988   1.403       .  A
C987        O992   1.371       .  S
C988        C989   1.403   1_545  A
C988        H993   1.084       .  S
C990        O994   1.373       .  S
C991       C1000   1.401   1_565  A
O992       H1008   0.992       .  S
O994       H1005   0.992       .  S
C996        C997   1.400       .  A
C996       O1001   1.372   1_554  S
C997       H1002   1.083       .  S
C998        C999   1.416   1_565  A
C999       C1000   1.401       .  A
C999       O1003   1.371       .  S
C1000      H1004   1.084       .  S
O1001      H1006   0.992   1_556  S
O1003      H1007   0.992       .  S
C1009      C1010   1.404       .  A
C1009      C1014   1.397       .  A
C1009      H1019   1.084       .  S
C1010      C1011   1.412   1_565  A
C1010      C1015   1.491       .  S
C1011      C1012   1.407       .  A
C1011      O1016   1.373       .  S
C1012      C1013   1.405   1_545  A
C1012      H1017   1.083       .  S
C1013      C1014   1.412       .  A
C1014      O1018   1.372       .  S
C1015      C1020   1.412   1_565  A
C1015      C1024   1.407       .  A
O1016      H1032   0.992       .  S
O1018      H1029   0.992       .  S
C1020      C1021   1.402       .  A
C1020      O1025   1.371       .  S
C1021      C1022   1.403   1_545  A
C1021      H1026   1.083       .  S
C1022      C1023   1.406       .  A
C1023      C1024   1.401       .  A
C1023      O1027   1.371       .  S
C1024      H1028   1.084       .  S
O1025      H1030   0.992       .  S
O1027      H1031   0.992       .  S
C1033      C1034   1.401       .  A
C1033      C1038   1.397       .  A
C1033      H1043   1.084       .  S
C1034      C1035   1.406   1_565  A
C1034      C1039   1.471       .  S
C1035      C1036   1.396       .  A
C1035      O1040   1.373       .  S
C1036      C1037   1.403       .  A
C1036      H1041   1.084       .  S
C1037      C1038   1.411   1_545  A
C1038      O1042   1.372       .  S
C1039      C1044   1.408   1_565  A
C1039      C1048   1.403       .  A
O1040      H1056   0.992       .  S
O1042      H1053   0.992       .  S
C1044      C1045   1.395       .  A
C1044      O1049   1.371       .  S
C1045      C1046   1.400   1_545  A
C1045      H1050   1.084       .  S
C1046      C1047   1.404       .  A
C1047      C1048   1.396       .  A
C1047      O1051   1.371       .  S
C1048      H1052   1.084       .  S
O1049      H1054   0.992       .  S
O1051      H1055   0.992       .  S
C1057      C1062   1.402       .  A
C1057      H1067   1.084       .  S
C1058      C1059   1.408   1_565  A
C1058      C1063   1.485       .  S
C1059      C1060   1.403       .  A
C1059      O1064   1.372       .  S
C1060      C1061   1.407   1_545  A
C1060      H1065   1.084       .  S
C1062      O1066   1.371       .  S
C1063      C1072   1.404       .  A
O1064      H1080   0.992       .  S
O1066      H1077   0.992       .  S
C1068      C1069   1.400       .  A
C1068      O1073   1.372       .  S
C1069      H1074   1.083       .  S
C1070      C1071   1.414       .  A
C1071      C1072   1.404       .  A
C1071      O1075   1.371       .  S
C1072      H1076   1.084       .  S
O1073      H1078   0.992       .  S
O1075      H1079   0.992       .  S
C1081      C1082   1.401   1_545  A
C1081      C1086   1.397       .  A
C1081      H1091   1.084       .  S
C1082      C1083   1.407       .  A
C1082      C1087   1.475       .  S
C1083      C1084   1.400       .  A
C1083      O1088   1.372       .  S
C1084      C1085   1.404       .  A
C1084      H1089   1.083       .  S
C1085      C1086   1.410   1_565  A
C1086      O1090   1.372       .  S
C1087      C1092   1.409       .  A
C1087      C1096   1.402   1_565  A
O1088      H1104   0.992       .  S
O1090      H1101   0.992       .  S
C1092      C1093   1.398       .  A
C1092      O1097   1.372       .  S
C1093      C1094   1.401       .  A
C1093      H1098   1.084       .  S
C1094      C1095   1.405   1_565  A
C1095      C1096   1.398       .  A
C1095      O1099   1.371       .  S
C1096      H1100   1.084       .  S
O1097      H1102   0.992       .  S
O1099      H1103   0.992       .  S
C1105      C1106   1.407       .  A
C1105      C1110   1.402       .  A
C1105      H1115   1.083       .  S
C1106      C1107   1.413   1_565  A
C1106      C1111   1.494       .  S
C1107      C1108   1.406       .  A
C1107      O1112   1.373       .  S
C1108      C1109   1.405   1_545  A
C1108      H1113   1.084       .  S
C1109      C1110   1.406       .  A
C1110      O1114   1.371       .  S
C1111      C1116   1.413   1_565  A
C1111      C1120   1.405       .  A
O1112      H1128   0.992       .  S
O1114      H1125   0.992       .  S
C1116      C1117   1.405       .  A
C1116      O1121   1.371       .  S
C1117      C1118   1.404   1_545  A
C1117      H1122   1.083       .  S
C1118      C1119   1.410       .  A
C1119      C1120   1.399       .  A
C1119      O1123   1.372       .  S
C1120      H1124   1.083       .  S
O1121      H1126   0.992       .  S
O1123      H1127   0.992       .  S
C1129      C1130   1.404       .  A
C1129      C1134   1.401       .  A
C1129      H1139   1.083       .  S
C1130      C1135   1.487       .  S
C1131      C1132   1.400       .  A
C1131      O1136   1.372       .  S
C1132      H1137   1.083       .  S
C1133      C1134   1.411       .  A
C1134      O1138   1.372       .  S
C1135      C1144   1.404       .  A
O1136      H1152   0.992       .  S
O1138      H1149   0.992       .  S
C1140      C1141   1.401       .  A
C1140      O1145   1.372   1_554  S
C1141      H1146   1.083       .  S
C1142      C1143   1.414       .  A
C1143      C1144   1.401       .  A
C1143      O1147   1.371       .  S
C1144      H1148   1.084       .  S
O1145      H1150   0.992   1_556  S
O1147      H1151   0.992       .  S
C1153      C1154   1.404       .  A
C1153      C1158   1.399       .  A
C1153      H1163   1.083       .  S
C1154      C1155   1.410       .  A
C1154      C1159   1.485       .  S
C1155      C1156   1.399       .  A
C1155      O1160   1.372       .  S
C1156      C1157   1.406       .  A
C1156      H1161   1.084       .  S
C1157      C1158   1.410       .  A
C1158      O1162   1.371       .  S
C1159      C1164   1.412       .  A
C1159      C1168   1.405       .  A
O1160      H1176   0.992       .  S
O1162      H1173   0.992       .  S
C1164      C1165   1.398       .  A
C1164      O1169   1.372       .  S
C1165      C1166   1.402       .  A
C1165      H1170   1.084       .  S
C1166      C1167   1.407       .  A
C1167      C1168   1.399       .  A
C1167      O1171   1.372       .  S
C1168      H1172   1.083       .  S
O1169      H1174   0.992       .  S
O1171      H1175   0.992       .  S
C1177      C1178   1.401       .  A
C1177      C1182   1.399       .  A
C1177      H1187   1.084       .  S
C1178      C1179   1.406       .  A
C1178      C1183   1.474       .  S
C1179      C1180   1.400       .  A
C1179      O1184   1.371       .  S
C1180      C1181   1.404       .  A
C1180      H1185   1.083       .  S
C1181      C1182   1.411       .  A
C1182      O1186   1.372       .  S
C1183      C1188   1.406       .  A
C1183      C1192   1.402       .  A
O1184      H1200   0.992       .  S
O1186      H1197   0.992       .  S
C1188      C1189   1.400       .  A
C1188      O1193   1.371       .  S
C1189      C1190   1.404       .  A
C1189      H1194   1.084       .  S
C1190      C1191   1.407       .  A
C1191      C1192   1.399       .  A
C1191      O1195   1.372       .  S
C1192      H1196   1.084       .  S
O1193      H1198   0.991       .  S
O1195      H1199   0.992       .  S
C1201      C1206   1.399       .  A
C1201      H1211   1.083       .  S
C1202      C1203   1.409       .  A
C1202      C1207   1.487       .  S
C1203      C1204   1.400       .  A
C1203      O1208   1.372       .  S
C1204      C1205   1.408       .  A
C1204      H1209   1.083       .  S
C1206      O1210   1.371       .  S
C1207      C1212   1.409       .  A
O1208      H1224   0.992       .  S
O1210      H1221   0.992       .  S
C1212      C1213   1.402       .  A
C1212      O1217   1.373       .  S
C1213      C1214   1.408       .  A
C1213      H1218   1.083       .  S
C1215      C1216   1.401       .  A
C1215      O1219   1.372       .  S
C1216      H1220   1.084       .  S
O1217      H1222   0.992   1_556  S
O1219      H1223   0.992       .  S
C1225      C1226   1.404       .  A
C1225      C1230   1.397       .  A
C1225      H1235   1.083       .  S
C1226      C1227   1.409       .  A
C1226      C1231   1.477       .  S
C1227      C1228   1.397       .  A
C1227      O1232   1.372       .  S
C1228      C1229   1.400       .  A
C1228      H1233   1.084       .  S
C1229      C1230   1.404       .  A
C1230      O1234   1.371       .  S
C1231      C1236   1.406       .  A
C1231      C1240   1.403       .  A
O1232      H1248   0.992       .  S
O1234      H1245   0.992       .  S
C1236      C1237   1.397       .  A
C1236      O1241   1.372       .  S
C1237      C1238   1.405       .  A
C1237      H1242   1.083       .  S
C1238      C1239   1.411       .  A
C1239      C1240   1.399       .  A
C1239      O1243   1.371       .  S
C1240      H1244   1.084       .  S
O1241      H1246   0.992       .  S
O1243      H1247   0.992       .  S
C1249      C1250   1.403       .  A
C1249      C1254   1.402       .  A
C1249      H1259   1.083       .  S
C1250      C1251   1.406       .  A
C1250      C1255   1.476       .  S
C1251      C1252   1.398       .  A
C1251      O1256   1.372       .  S
C1252      C1253   1.405       .  A
C1252      H1257   1.084       .  S
C1253      C1254   1.410       .  A
C1254      O1258   1.372       .  S
C1255      C1260   1.407       .  A
C1255      C1264   1.402       .  A
O1256      H1272   0.992       .  S
O1258      H1269   0.992       .  S
C1260      C1261   1.401       .  A
C1260      O1265   1.371       .  S
C1261      C1262   1.404       .  A
C1261      H1266   1.083       .  S
C1262      C1263   1.408       .  A
C1263      C1264   1.399       .  A
C1263      O1267   1.371       .  S
C1264      H1268   1.084       .  S
O1265      H1270   0.992       .  S
O1267      H1271   0.992       .  S
