geometry optimzed in LAMMPS
_audit_creation_date              2020-11-30 
_audit_creation_method            'lammps2cif' 
_symmetry_space_group_name_H-M    'P1' 
_symmetry_Int_Tables_number       1 
_symmetry_cell_setting            triclinic 
loop_ 
_symmetry_equiv_pos_as_xyz 
  x,y,z 
_cell_length_a                    37.28023035 
_cell_length_b                    37.29735145269244 
_cell_length_c                    53.95945867232153 
_cell_angle_alpha                 90.13959058138913 
_cell_angle_beta                  90.14638533644211 
_cell_angle_gamma                 120.31233995148754 
loop_ 
_atom_site_label 
_atom_site_type_symbol 
_atom_site_fract_x 
_atom_site_fract_y 
_atom_site_fract_z 
_atom_site_charge 
C1          C  0.99830633  0.99650021  0.72170026     0.46300
H2          H  0.99125571  0.98940463  0.70179871    -0.02700
C3          C  0.01216121  0.01062602  0.76886400     0.46300
H4          H  0.01866017  0.01617661  0.78897029    -0.02700
C5          C  0.00708480  0.04000118  0.72967078    -0.16400
C6          C  0.96189129  0.96570968  0.73790856    -0.16200
C7          C  0.03582478  0.99352821  0.73053348    -0.16600
C8          C  0.01375010  0.04742952  0.75483108    -0.16500
C9          C  0.96914142  0.97294213  0.76296632    -0.16100
C10         C  0.04327976  0.00120743  0.75560502    -0.16400
Zn11       Zn  0.72403727  0.34275491  0.00058655     1.49700
Zn12       Zn  0.62493450  0.28300670  0.99865570     1.49400
Zn13       Zn  0.66531050  0.38047213  0.00501778     1.49100
Zn14       Zn  0.67178422  0.34196240  0.95367360     1.49500
O15         O  0.67153643  0.33694069  0.98951882    -1.83300
O16         O  0.71247645  0.29438952  0.02204276    -0.73900
O17         O  0.58365477  0.28957293  0.01894182    -0.73700
O18         O  0.70995599  0.41216371  0.03025618    -0.73300
O19         O  0.64423656  0.25171962  0.01966330    -0.73900
O20         O  0.75681551  0.39372792  0.02229997    -0.73500
O21         O  0.61035053  0.35784268  0.02161155    -0.74100
O22         O  0.67555720  0.39538408  0.94383673    -0.73500
O23         O  0.59298541  0.24959174  0.96864834    -0.74300
O24         O  0.66985673  0.42148017  0.97975646    -0.73700
O25         O  0.62089743  0.29448122  0.93799892    -0.74100
O26         O  0.72058960  0.34139326  0.93912335    -0.74000
O27         O  0.75816799  0.34300776  0.97138647    -0.73800
C28         C  0.67982598  0.26097015  0.02812186     0.78000
C29         C  0.58149602  0.32098116  0.02594463     0.78500
C30         C  0.74533905  0.41590831  0.03406402     0.77400
C31         C  0.67444039  0.42367727  0.95637690     0.77800
C32         C  0.59319535  0.25923888  0.94596935     0.78900
C33         C  0.75215371  0.34145119  0.94801895     0.78000
C34         C  0.75102242  0.75746060  0.87310928     0.81100
N35         N  0.74833222  0.72077786  0.87914350    -0.77200
C36         C  0.71471195  0.69162764  0.89168356     0.83500
N37         N  0.68434339  0.69924664  0.89835731    -0.77200
C38         C  0.68687690  0.73564732  0.89259013     0.83600
N39         N  0.72017281  0.76493751  0.87985005    -0.78900
Zn40       Zn  0.33607070  0.71899827  0.01926019     1.49700
Zn41       Zn  0.28106195  0.62112567  0.01639839     1.49400
Zn42       Zn  0.33800524  0.67214997  0.97113289     1.49100
Zn43       Zn  0.38042266  0.66528930  0.02004030     1.49500
O44         O  0.33385080  0.66915173  0.00692822    -1.83300
O45         O  0.28968222  0.70503854  0.04278521    -0.73900
O46         O  0.24958842  0.58850523  0.98592854    -0.73700
O47         O  0.32640806  0.71542591  0.95787246    -0.73300
O48         O  0.24628944  0.63761394  0.03709527    -0.73900
O49         O  0.32809607  0.75035902  0.99165283    -0.73500
O50         O  0.29555566  0.61835063  0.95594703    -0.74100
O51         O  0.42089355  0.67210154  0.99301400    -0.73500
O52         O  0.29135006  0.58230248  0.03711496    -0.74300
O53         O  0.39468002  0.68581937  0.95979918    -0.73700
O54         O  0.36021127  0.61095436  0.03798666    -0.74100
O55         O  0.41433729  0.71306088  0.04319858    -0.74000
O56         O  0.38914952  0.75493344  0.03772940    -0.73800
C57         C  0.25550784  0.67214271  0.04724967     0.78000
C58         C  0.26057345  0.58945054  0.96343207     0.78500
C59         C  0.32365771  0.74448208  0.96833465     0.77400
C60         C  0.42375835  0.68329826  0.97047329     0.77800
C61         C  0.32391281  0.58163196  0.04347441     0.78900
C62         C  0.41613934  0.74766072  0.04708641     0.78000
C63         C  0.27338881  0.26324116  0.14051015     0.81100
N64         N  0.27086968  0.29789947  0.13625414    -0.77200
C65         C  0.30174150  0.33044066  0.12377445     0.83500
N66         N  0.33410295  0.32749315  0.11492661    -0.77200
C67         C  0.33654631  0.29284962  0.11863113     0.83600
N68         N  0.30613028  0.26083756  0.13152847    -0.78900
C69         C  0.26151349  0.99646789  0.86120799     0.81100
N70         N  0.29867338  0.03268680  0.86158338    -0.77200
C71         C  0.33209274  0.03394533  0.87267333     0.83500
N72         N  0.32788835  0.99938146  0.88353348    -0.77200
C73         C  0.29110180  0.96321225  0.88309332     0.83600
N74         N  0.25803320  0.96198144  0.87187690    -0.78900
C75         C  0.99369032  0.73069812  0.14212399     0.81100
N76         N  0.03148109  0.73397062  0.13887022    -0.77200
C77         C  0.03393082  0.70126118  0.12977790     0.83500
N78         N  0.99859821  0.66528052  0.12448079    -0.77200
C79         C  0.96086754  0.66128725  0.12806240     0.83600
N80         N  0.95844436  0.69428041  0.13667788    -0.78900
C81         C  0.00810324  0.28582865  0.84153576     0.81100
N82         N  0.97216357  0.28610620  0.84547942    -0.77200
C83         C  0.97319361  0.31888927  0.85726489     0.83500
N84         N  0.00979318  0.35020468  0.86581907    -0.77200
C85         C  0.04568306  0.35018206  0.86233677     0.83600
N86         N  0.04487922  0.31789647  0.85003686    -0.78900
C87         C  0.72425239  0.01574543  0.15349518     0.81100
N88         N  0.72485172  0.05089935  0.14614808    -0.77200
C89         C  0.69063443  0.04827677  0.13533482     0.83500
N90         N  0.65683142  0.01057902  0.13107267    -0.77200
C91         C  0.65600530  0.97557635  0.13844516     0.83600
N92         N  0.68985012  0.97811215  0.14944874    -0.78900
Zn93       Zn  0.71016712  0.38327575  0.51656558     1.49700
Zn94       Zn  0.65598065  0.28449622  0.51789109     1.49400
Zn95       Zn  0.61195044  0.33776590  0.51214262     1.49100
Zn96       Zn  0.66640941  0.33294671  0.46812087     1.49500
O97         O  0.66100645  0.33462096  0.50375957    -1.83300
O98         O  0.74548921  0.36627357  0.53537801    -0.73900
O99         O  0.60161730  0.25003099  0.53534323    -0.73700
O100        O  0.62667106  0.38859545  0.53282716    -0.73300
O101        O  0.70250970  0.29884217  0.54139282    -0.73900
O102        O  0.69415597  0.41472240  0.53971279    -0.73500
O103        O  0.57197330  0.28851378  0.53223750    -0.74100
O104        O  0.61438421  0.32350525  0.45173828    -0.73500
O105        O  0.66299144  0.24980980  0.49195955    -0.74300
O106        O  0.58043616  0.33505219  0.48130018    -0.73700
O107        O  0.67730056  0.28755478  0.45767312    -0.74100
O108        O  0.71256163  0.38691065  0.45525466    -0.74000
O109        O  0.74395342  0.42269641  0.48915169    -0.73800
C110        C  0.73725600  0.33172629  0.54487341     0.78000
C111        C  0.57138997  0.25583942  0.53956596     0.78500
C112        C  0.66050055  0.41480188  0.54341003     0.77400
C113        C  0.58360376  0.32660373  0.45878078     0.77800
C114        C  0.67358285  0.25626063  0.46930287     0.78900
C115        C  0.74059835  0.41985109  0.46562468     0.78000
C116        C  0.71731742  0.71984168  0.65645426     0.81100
N117        N  0.71752616  0.68376767  0.65334342    -0.77200
C118        C  0.68478985  0.65073155  0.64226732     0.83500
N119        N  0.65282225  0.65441334  0.63352165    -0.77200
C120        C  0.65256861  0.69032968  0.63604215     0.83600
N121        N  0.68487348  0.72326013  0.64763804    -0.78900
Zn122      Zn  0.33339326  0.61443353  0.51234316     1.49700
Zn123      Zn  0.32851219  0.65713975  0.46282569     1.49400
Zn124      Zn  0.27638298  0.65519978  0.50905123     1.49100
Zn125      Zn  0.37512648  0.71142395  0.51050460     1.49500
O126        O  0.32830293  0.65963553  0.49875969    -1.83300
O127        O  0.33312853  0.57751261  0.48536000    -0.73900
O128        O  0.28457975  0.66660171  0.44768485    -0.73700
O129        O  0.24126519  0.60291027  0.52851921    -0.73300
O130        O  0.32022610  0.60241193  0.45123713    -0.73900
O131        O  0.28474239  0.57914792  0.53358822    -0.73500
O132        O  0.24483776  0.65965033  0.47989478    -0.74100
O133        O  0.35615727  0.74674906  0.52723057    -0.73500
O134        O  0.38353698  0.70063543  0.44987786    -0.74300
O135        O  0.28820047  0.70297383  0.53101643    -0.73700
O136        O  0.41327501  0.74204669  0.48245067    -0.74100
O137        O  0.40950709  0.70166334  0.53541545    -0.74000
O138        O  0.38421413  0.63391362  0.53365394    -0.73800
C139        C  0.32569618  0.57539094  0.46223943     0.78000
C140        C  0.25297198  0.66613489  0.45685732     0.78500
C141        C  0.25012579  0.57691340  0.53771397     0.77400
C142        C  0.32066668  0.73762978  0.53554161     0.77800
C143        C  0.41355972  0.73274544  0.45977715     0.78900
C144        C  0.41053812  0.66949460  0.54211047     0.78000
C145        C  0.27101110  0.98658776  0.65248206     0.81100
N146        N  0.30087444  0.02585844  0.64615391    -0.77200
C147        C  0.33418343  0.03176564  0.63264036     0.83500
N148        N  0.33670396  0.99863113  0.62483931    -0.77200
C149        C  0.30709045  0.95967943  0.63092101     0.83600
N150        N  0.27394080  0.95371698  0.64437570    -0.78900
C151        C  0.99215512  0.25044704  0.62517627     0.81100
N152        N  0.03084862  0.28466835  0.62381284    -0.77200
C153        C  0.03551856  0.32082920  0.61484811     0.83500
N154        N  0.00156574  0.32244324  0.60764621    -0.77200
C155        C  0.96324156  0.28851363  0.60893921     0.83600
N156        N  0.95845682  0.25265612  0.61806537    -0.78900
C157        C  0.99879532  0.72940206  0.35240313     0.81100
N158        N  0.96193695  0.69708423  0.36034567    -0.77200
C159        C  0.96126960  0.66532791  0.37309439     0.83500
N160        N  0.99737500  0.66602972  0.37759327    -0.77200
C161        C  0.03406472  0.69794254  0.36973269     0.83600
N162        N  0.03487855  0.73011012  0.35753647    -0.78900
C163        C  0.28820495  0.28419789  0.33731270     0.81100
N164        N  0.32244356  0.28141353  0.34230118    -0.77200
C165        C  0.35349432  0.31051947  0.35662670     0.83500
N166        N  0.35003269  0.34227623  0.36609586    -0.77200
C167        C  0.31574478  0.34491647  0.36162506     0.83600
N168        N  0.28447998  0.31554569  0.34750795    -0.78900
C169        C  0.73556574  0.99911624  0.36788972     0.81100
N170        N  0.70222286  0.96106969  0.37236991    -0.77200
C171        C  0.67035460  0.95757814  0.38612521     0.83500
N172        N  0.67228231  0.99186295  0.39599289    -0.77200
C173        C  0.70585012  0.02992210  0.39219913     0.83600
N174        N  0.73750244  0.03360781  0.37787654    -0.78900
C175        C  0.99239823  0.00061292  0.22524543     0.46300
H176        H  0.98828160  0.99738912  0.20494062    -0.02700
C177        C  0.00161087  0.00493569  0.27309877     0.46300
H178        H  0.00589150  0.00762621  0.29332818    -0.02700
C179        C  0.96151156  0.00980489  0.23885030    -0.16400
C180        C  0.98708566  0.96063472  0.23685478    -0.16200
C181        C  0.03550284  0.03514294  0.23343138    -0.16600
C182        C  0.96546752  0.01078792  0.26432622    -0.16500
C183        C  0.99185802  0.96253581  0.26227093    -0.16100
C184        C  0.04050397  0.03767910  0.25885124    -0.16400
C185        C  0.90898455  0.03101634  0.31738879    -0.11000
C186        C  0.86778046  0.00158470  0.31182902     0.11500
C187        C  0.85861242  0.97419047  0.29163427    -0.02900
C188        C  0.89148376  0.97896949  0.27666974    -0.05600
C189        C  0.93321361  0.00919944  0.28166059    -0.16400
C190        C  0.94218865  0.03526642  0.30293243     0.02600
C191        C  0.83470149  0.00141134  0.32694997     0.12500
C192        C  0.81444067  0.93933870  0.28644618     0.63100
H193        H  0.88477771  0.95811334  0.26114009     0.12500
C194        C  0.98548300  0.06740551  0.31163819     0.55300
H195        H  0.91506229  0.05113906  0.33329375     0.08300
C196        C  0.82383267  0.98247642  0.35052674    -0.05500
C197        C  0.79124650  0.98268994  0.36339773    -0.06200
C198        C  0.77044388  0.00206769  0.35363189    -0.15800
C199        C  0.78158556  0.02137038  0.33018560    -0.01400
C200        C  0.81410238  0.02108370  0.31726353    -0.08900
C201        C  0.84704617  0.96297761  0.36222048     0.65300
H202        H  0.78198313  0.96811683  0.38140470     0.10800
C203        C  0.75820127  0.04068829  0.31857659     0.63700
H204        H  0.82342817  0.03571634  0.29927285     0.08200
F205        F  0.99891723  0.04986276  0.32921482    -0.19300
F206        F  0.98535632  0.10122153  0.32221127    -0.15500
F207        F  0.01344656  0.08244796  0.29260568    -0.19000
F208        F  0.78907375  0.95553095  0.28145835    -0.22400
F209        F  0.79900635  0.91374041  0.30683678    -0.23900
F210        F  0.81256733  0.91511798  0.26644536    -0.17900
F211        F  0.76388768  0.07414173  0.33270186    -0.20400
F212        F  0.71624219  0.01157625  0.31735181    -0.21500
F213        F  0.77179241  0.05464157  0.29477865    -0.18700
F214        F  0.82865488  0.94271010  0.38406571    -0.18800
F215        F  0.88739223  0.99354288  0.36752813    -0.22600
F216        F  0.84782856  0.93435726  0.34625719    -0.24200
C217        C  0.13837723  0.10475434  0.29796467    -0.11000
C218        C  0.14685601  0.14453114  0.29131251     0.11500
C219        C  0.12146085  0.14925760  0.27373635    -0.02900
C220        C  0.08676454  0.11346942  0.26428608    -0.05600
C221        C  0.07737190  0.07327100  0.27121069    -0.16400
C222        C  0.10409127  0.06871217  0.28812731     0.02600
C223        C  0.18267642  0.18075816  0.30318856     0.12500
C224        C  0.13118217  0.19187997  0.26489710     0.63100
H225        H  0.06641583  0.11655604  0.25121719     0.12500
C226        C  0.09844433  0.02670103  0.29486171     0.55300
H227        H  0.15913155  0.10233712  0.31105349     0.08300
C228        C  0.17961009  0.19464929  0.32708214    -0.05500
C229        C  0.21474981  0.22927115  0.33724793    -0.06200
C230        C  0.25249165  0.24977825  0.32440372    -0.15800
C231        C  0.25545542  0.23615310  0.30037120    -0.01400
C232        C  0.22033485  0.20126238  0.29025870    -0.08900
C233        C  0.13958441  0.17265445  0.34187506     0.65300
H234        H  0.21334773  0.24001893  0.35566983     0.10800
C235        C  0.29478909  0.25930812  0.28510436     0.63700
H236        H  0.22181827  0.18975378  0.27206990     0.08200
F237        F  0.06249516  0.00384266  0.30826920    -0.19300
F238        F  0.13103344  0.03040059  0.30917806    -0.15500
F239        F  0.09688357  0.00556802  0.27352662    -0.19000
F240        F  0.16929451  0.21145414  0.25322615    -0.22400
F241        F  0.13237955  0.21586399  0.28479758    -0.23900
F242        F  0.10172587  0.18941796  0.24822021    -0.17900
F243        F  0.32682636  0.25667058  0.29618539    -0.20400
F244        F  0.30581606  0.30060820  0.28321444    -0.21500
F245        F  0.28945135  0.24318033  0.26135532    -0.18700
F246        F  0.14284806  0.19257259  0.36416578    -0.18800
F247        F  0.13006029  0.13252511  0.34704117    -0.22600
F248        F  0.10732078  0.17142392  0.32848266    -0.24200
C249        C  0.97294265  0.87667642  0.30868584    -0.11000
C250        C  0.00405756  0.86821696  0.30173244     0.11500
C251        C  0.03236633  0.89199989  0.28296921    -0.02900
C252        C  0.02614793  0.92121755  0.27014895    -0.05600
C253        C  0.99516483  0.93027006  0.27707468    -0.16400
C254        C  0.96893347  0.90854991  0.29746625     0.02600
C255        C  0.00602954  0.83421138  0.31471929     0.12500
C256        C  0.07025967  0.88817155  0.27767716     0.63100
H257        H  0.04637870  0.93816422  0.25490137     0.12500
C258        C  0.93651489  0.91788282  0.30756369     0.55300
H259        H  0.95245541  0.85856706  0.32360676     0.08300
C260        C  0.02065785  0.83808035  0.33944195    -0.05500
C261        C  0.01702408  0.80280915  0.35119678    -0.06200
C262        C  0.00015420  0.76445400  0.33896956    -0.15800
C263        C  0.98703942  0.76088201  0.31402600    -0.01400
C264        C  0.98944991  0.79579520  0.30242708    -0.08900
C265        C  0.04040583  0.87821687  0.35433877     0.65300
H266        H  0.02772016  0.80529226  0.37017755     0.10800
C267        C  0.97154668  0.72063465  0.29968041     0.63700
H268        H  0.97817524  0.79336857  0.28362754     0.08200
F269        F  0.95562371  0.95644611  0.31877605    -0.19300
F270        F  0.91147603  0.88920157  0.32515057    -0.15500
F271        F  0.91105065  0.91675254  0.28875735    -0.19000
F272        F  0.05832805  0.84838591  0.26990444    -0.22400
F273        F  0.09379382  0.89680773  0.29905821    -0.23900
F274        F  0.09513967  0.91566794  0.25955777    -0.17900
F275        F  0.93557043  0.68958726  0.31034994    -0.20400
F276        F  0.00150833  0.70914423  0.30005358    -0.21500
F277        F  0.96300342  0.72453135  0.27517011    -0.18700
F278        F  0.07892167  0.88662437  0.36288073    -0.18800
F279        F  0.01550761  0.87345300  0.37446590    -0.22600
F280        F  0.04617723  0.91222618  0.34092958    -0.24200
C281        C  0.15314222  0.48409793  0.56339570    -0.11000
C282        C  0.16949752  0.47566288  0.58457408     0.11500
C283        C  0.21198473  0.50103626  0.59063380    -0.02900
C284        C  0.23675002  0.53491431  0.57524821    -0.05600
C285        C  0.22047079  0.54340062  0.55398631    -0.16400
C286        C  0.17792083  0.51772201  0.54785373     0.02600
C287        C  0.14142623  0.43748145  0.59834300     0.12500
C288        C  0.23121671  0.49194846  0.61284379     0.63100
H289        H  0.26947247  0.55476293  0.57944707     0.12500
C290        C  0.15913706  0.52433396  0.52450315     0.55300
H291        H  0.12067237  0.46338454  0.55892079     0.08300
C292        C  0.10999327  0.43527801  0.61394274    -0.05500
C293        C  0.07815786  0.39599577  0.62141228    -0.06200
C294        C  0.07630259  0.35933700  0.61312459    -0.15800
C295        C  0.10953504  0.36180121  0.59913556    -0.01400
C296        C  0.14177131  0.40118666  0.59197076    -0.08900
C297        C  0.10867947  0.47393763  0.62141022     0.65300
H298        H  0.05254163  0.39341682  0.63225563     0.10800
C299        C  0.10950253  0.32321664  0.59025356     0.63700
H300        H  0.16602589  0.40385188  0.57977431     0.08200
F301        F  0.15968006  0.56160388  0.52608796    -0.19300
F302        F  0.11830126  0.49310148  0.52099577    -0.15500
F303        F  0.18160917  0.52480337  0.50401501    -0.19000
F304        F  0.22754658  0.45338499  0.61013987    -0.22400
F305        F  0.21128460  0.49233762  0.63429343    -0.23900
F306        F  0.27302298  0.52106865  0.61544626    -0.17900
F307        F  0.07498122  0.29971031  0.57548758    -0.20400
F308        F  0.10879316  0.30013992  0.61045525    -0.21500
F309        F  0.14450573  0.33281217  0.57649067    -0.18700
F310        F  0.07700956  0.46490077  0.63802848    -0.18800
F311        F  0.10226946  0.49188540  0.60076822    -0.22600
F312        F  0.14575432  0.50236879  0.63252178    -0.24200
C313        C  0.28931599  0.40095987  0.41008931    -0.11000
C314        C  0.31339261  0.44206434  0.40204872     0.11500
C315        C  0.33737681  0.45118743  0.38021121    -0.02900
C316        C  0.33536026  0.41809968  0.36655260    -0.05600
C317        C  0.31123562  0.37698847  0.37459646    -0.16400
C318        C  0.28830037  0.36804402  0.39683440     0.02600
C319        C  0.31502682  0.47524113  0.41781534     0.12500
C320        C  0.36610457  0.49569255  0.37200305     0.63100
H321        H  0.35387227  0.42413808  0.34997344     0.12500
C322        C  0.26456167  0.32420338  0.40701761     0.55300
H323        H  0.27223829  0.39509219  0.42725397     0.08300
C324        C  0.28448477  0.48696948  0.41632528    -0.05500
C325        C  0.28921644  0.52001188  0.43121009    -0.06200
C326        C  0.32275490  0.54051448  0.44774914    -0.15800
C327        C  0.35286942  0.52807901  0.44958431    -0.01400
C328        C  0.34814322  0.49516324  0.43459067    -0.08900
C329        C  0.24701437  0.46439927  0.39929333     0.65300
H330        H  0.26641757  0.52983418  0.43028765     0.10800
C331        C  0.39059947  0.55028906  0.46649787     0.63700
H332        H  0.37056701  0.48486344  0.43559374     0.08200
F333        F  0.24556923  0.32255498  0.42934059    -0.19300
F334        F  0.29152662  0.30945580  0.41089616    -0.15500
F335        F  0.23410358  0.29853785  0.39034214    -0.19000
F336        F  0.39718592  0.51627994  0.38944921    -0.22400
F337        F  0.34407038  0.51616798  0.36943862    -0.23900
F338        F  0.38473000  0.49747363  0.34952473    -0.17900
F339        F  0.37833614  0.54286375  0.49100432    -0.20400
F340        F  0.41095574  0.59256881  0.46207256    -0.21500
F341        F  0.41864389  0.53685401  0.46264281    -0.18700
F342        F  0.22183720  0.48177503  0.40008723    -0.18800
F343        F  0.22350221  0.42332862  0.40639387    -0.22600
F344        F  0.25980793  0.46602698  0.37509680    -0.24200
C345        C  0.34141722  0.88703355  0.60595306    -0.11000
C346        C  0.30663645  0.86037204  0.59164366     0.11500
C347        C  0.27045088  0.86350887  0.59225066    -0.02900
C348        C  0.27153763  0.89591967  0.60605306    -0.05600
C349        C  0.30726561  0.92422243  0.61927773    -0.16400
C350        C  0.34246415  0.91923393  0.61990495     0.02600
C351        C  0.30927687  0.82904198  0.57652582     0.12500
C352        C  0.23094292  0.83253117  0.57872159     0.63100
H353        H  0.24475508  0.90000940  0.60617523     0.12500
C354        C  0.38073584  0.94731244  0.63528627     0.55300
H355        H  0.36819871  0.88293850  0.60556460     0.08300
C356        C  0.32700994  0.83831170  0.55258708    -0.05500
C357        C  0.32993823  0.80725808  0.53965772    -0.06200
C358        C  0.31685639  0.76841477  0.55035775    -0.15800
C359        C  0.30114870  0.76000237  0.57480924    -0.01400
C360        C  0.29704669  0.79059148  0.58743383    -0.08900
C361        C  0.34371395  0.88101773  0.54111233     0.65300
H362        H  0.34268114  0.81306847  0.52111259     0.10800
C363        C  0.29106522  0.72002544  0.58795127     0.63700
H364        H  0.28501386  0.78516215  0.60614802     0.08200
F365        F  0.40757550  0.93191109  0.63682247    -0.19300
F366        F  0.36916753  0.95068390  0.65913062    -0.15500
F367        F  0.40203059  0.98620046  0.62463650    -0.19000
F368        F  0.21641433  0.79336477  0.58846497    -0.22400
F369        F  0.23860125  0.83162892  0.55375709    -0.23900
F370        F  0.19995206  0.84242027  0.58107263    -0.17900
F371        F  0.28038292  0.72027884  0.61248427    -0.20400
F372        F  0.32544552  0.71510334  0.58751034    -0.21500
F373        F  0.25809061  0.68644744  0.57635932    -0.18700
F374        F  0.35862970  0.88278831  0.51740493    -0.18800
F375        F  0.37597281  0.91051526  0.55544693    -0.22600
F376        F  0.31276984  0.89099890  0.53971219    -0.24200
C377        C  0.56320864  0.86307137  0.38601745    -0.11000
C378        C  0.56340836  0.84670804  0.40932391     0.11500
C379        C  0.60077395  0.86293763  0.42313886    -0.02900
C380        C  0.63627003  0.89812686  0.41405388    -0.05600
C381        C  0.63487280  0.91683237  0.39190748    -0.16400
C382        C  0.59845162  0.89884914  0.37726071     0.02600
C383        C  0.52307781  0.81705350  0.42043041     0.12500
C384        C  0.60266253  0.84393257  0.44763555     0.63100
H385        H  0.66488353  0.91250745  0.42470606     0.12500
C386        C  0.59639099  0.91894776  0.35332287     0.55300
H387        H  0.53427515  0.84954829  0.37571419     0.08300
C388        C  0.49842435  0.83122739  0.43203063    -0.05500
C389        C  0.46216002  0.80226210  0.44420769    -0.06200
C390        C  0.44994808  0.76012634  0.44479285    -0.15800
C391        C  0.47404634  0.74572781  0.43272178    -0.01400
C392        C  0.51039729  0.77474287  0.42044648    -0.08900
C393        C  0.51073808  0.87682434  0.43191249     0.65300
H394        H  0.44306366  0.81229787  0.45360949     0.10800
C395        C  0.46246713  0.70043086  0.43381248     0.63700
H396        H  0.52977152  0.76487297  0.41124019     0.08200
F397        F  0.55851551  0.89564193  0.34140175    -0.19300
F398        F  0.62731949  0.92306827  0.33746342    -0.15500
F399        F  0.60194233  0.95781615  0.35836259    -0.19000
F400        F  0.59347540  0.80351725  0.44371628    -0.22400
F401        F  0.57432680  0.84394493  0.46411776    -0.23900
F402        F  0.64170074  0.86564790  0.45843277    -0.17900
F403        F  0.49242684  0.69402462  0.42300570    -0.20400
F404        F  0.42540139  0.67606296  0.42136463    -0.21500
F405        F  0.45821226  0.68777415  0.45824668    -0.18700
F406        F  0.48321162  0.88385754  0.44527606    -0.18800
F407        F  0.51118102  0.88971602  0.40786823    -0.22600
F408        F  0.54977877  0.90072717  0.44231506    -0.24200
C409        C  0.11449125  0.66627335  0.38057769    -0.11000
C410        C  0.13817916  0.69427556  0.39941377     0.11500
C411        C  0.13184450  0.72761936  0.40549068    -0.02900
C412        C  0.09891748  0.72944291  0.39399295    -0.05600
C413        C  0.07272152  0.69906476  0.37687924    -0.16400
C414        C  0.08140316  0.66790965  0.36921477     0.02600
C415        C  0.16721664  0.68600401  0.41368713     0.12500
C416        C  0.15906224  0.76035560  0.42445705     0.63100
H417        H  0.09200254  0.75336396  0.39922819     0.12500
C418        C  0.05581379  0.63660273  0.34919342     0.55300
H419        H  0.12083473  0.64179729  0.37577590     0.08300
C420        C  0.15309192  0.65728887  0.43345716    -0.05500
C421        C  0.18220845  0.65153870  0.44674990    -0.06200
C422        C  0.22463586  0.67302280  0.44073113    -0.15800
C423        C  0.23864186  0.70146706  0.42058658    -0.01400
C424        C  0.20931682  0.70714120  0.40729694    -0.08900
C425        C  0.10738874  0.63272832  0.44042570     0.65300
H426        H  0.17189122  0.62978270  0.46199678     0.10800
C427        C  0.28422072  0.72681959  0.41349514     0.63700
H428        H  0.21899136  0.72844903  0.39183279     0.08200
F429        F  0.07257872  0.61224830  0.34254617    -0.19300
F430        F  0.05444770  0.65727488  0.32828364    -0.15500
F431        F  0.01585205  0.61056826  0.35748339    -0.19000
F432        F  0.19983651  0.78079030  0.41651664    -0.22400
F433        F  0.15674167  0.74196920  0.44706657    -0.23900
F434        F  0.14709906  0.78963981  0.42787439    -0.17900
F435        F  0.29104683  0.75592642  0.39545628    -0.20400
F436        F  0.29748098  0.70089469  0.40421564    -0.21500
F437        F  0.30787551  0.74792403  0.43402289    -0.18700
F438        F  0.10069977  0.60798380  0.46096771    -0.18800
F439        F  0.08453247  0.60718174  0.42094233    -0.22600
F440        F  0.09294399  0.65946438  0.44582914    -0.24200
C441        C  0.57792626  0.68688983  0.58725849    -0.11000
C442        C  0.54955263  0.69170194  0.60173721     0.11500
C443        C  0.55602534  0.69817375  0.62763548    -0.02900
C444        C  0.59138328  0.69966800  0.63822927    -0.05600
C445        C  0.61930190  0.69402359  0.62368923    -0.16400
C446        C  0.61307766  0.68835690  0.59771280     0.02600
C447        C  0.51273185  0.68816473  0.58886256     0.12500
C448        C  0.52533739  0.70258289  0.64393772     0.63100
H449        H  0.59666311  0.70363382  0.65804597     0.12500
C450        C  0.64336041  0.68392012  0.58095436     0.55300
H451        H  0.57182040  0.68123955  0.56757250     0.08300
C452        C  0.51555992  0.72068525  0.57406404    -0.05500
C453        C  0.48092997  0.71339410  0.55982294    -0.06200
C454        C  0.44409511  0.67444152  0.55932418    -0.15800
C455        C  0.44105724  0.64205137  0.57473666    -0.01400
C456        C  0.47575636  0.64970104  0.58918014    -0.08900
C457        C  0.55555987  0.76240840  0.57253411     0.65300
H458        H  0.48320532  0.73788287  0.54801845     0.10800
C459        C  0.40188398  0.59956934  0.57613657     0.63700
H460        H  0.47490274  0.62511066  0.60027097     0.08200
F461        F  0.63568774  0.68707739  0.55616497    -0.19300
F462        F  0.63989510  0.64559980  0.58446237    -0.15500
F463        F  0.68361233  0.71492537  0.58619041    -0.19000
F464        F  0.48720255  0.66632413  0.64318295    -0.22400
F465        F  0.52063929  0.73502581  0.63566791    -0.23900
F466        F  0.53845412  0.71046322  0.66839509    -0.17900
F467        F  0.39594946  0.57840719  0.55402838    -0.20400
F468        F  0.36786080  0.60398684  0.58091076    -0.21500
F469        F  0.40426933  0.57549426  0.59484565    -0.18700
F470        F  0.55016741  0.79115475  0.55935105    -0.18800
F471        F  0.58580404  0.75766586  0.56077178    -0.22600
F472        F  0.56930993  0.77829587  0.59604712    -0.24200
C473        C  0.86862641  0.27678628  0.57574539    -0.11000
C474        C  0.86550435  0.30901807  0.58696685     0.11500
C475        C  0.89193726  0.33186445  0.60686312    -0.02900
C476        C  0.92317794  0.32349287  0.61379363    -0.05600
C477        C  0.92728273  0.29218905  0.60204979    -0.16400
C478        C  0.89928912  0.26771714  0.58307051     0.02600
C479        C  0.83405129  0.31806141  0.57733936     0.12500
C480        C  0.88676937  0.36444171  0.62077445     0.63100
H481        H  0.94480081  0.34136941  0.62848939     0.12500
C482        C  0.90266122  0.23332823  0.57013451     0.55300
H483        H  0.84714033  0.25925578  0.56092202     0.08300
C484        C  0.84221540  0.34449025  0.55681467    -0.05500
C485        C  0.81014848  0.35024172  0.54796283    -0.06200
C486        C  0.77017445  0.32889403  0.55824633    -0.15800
C487        C  0.76228446  0.30280641  0.57907971    -0.01400
C488        C  0.79480918  0.29807021  0.58836258    -0.08900
C489        C  0.88380383  0.36468345  0.54353434     0.65300
H490        H  0.81539481  0.36952876  0.53185111     0.10800
C491        C  0.72005294  0.27992657  0.59150322     0.63700
H492        H  0.78960466  0.27766633  0.60389567     0.08200
F493        F  0.87430518  0.21575602  0.55089093    -0.19300
F494        F  0.89498710  0.20225907  0.58686320    -0.15500
F495        F  0.94209172  0.24902461  0.56043925    -0.19000
F496        F  0.84801788  0.34590726  0.63169848    -0.22400
F497        F  0.89035402  0.39487679  0.60472078    -0.23900
F498        F  0.91638746  0.38344495  0.63925217    -0.17900
F499        F  0.69225887  0.24745570  0.57659913    -0.20400
F500        F  0.70541126  0.30687884  0.59571265    -0.21500
F501        F  0.72203491  0.26350969  0.61411686    -0.18700
F502        F  0.88568954  0.39090757  0.52481758    -0.18800
F503        F  0.88984913  0.33429962  0.53304603    -0.22600
F504        F  0.91582761  0.38780218  0.55998568    -0.24200
C505        C  0.69432026  0.10070396  0.43814948    -0.11000
C506        C  0.70355506  0.13475900  0.42310988     0.11500
C507        C  0.71855180  0.13679550  0.39880169    -0.02900
C508        C  0.72010228  0.10230569  0.38947782    -0.05600
C509        C  0.70770200  0.06669134  0.40393472    -0.16400
C510        C  0.69627932  0.06647384  0.42906083     0.02600
C511        C  0.69579537  0.16704828  0.43337163     0.12500
C512        C  0.73278135  0.17519894  0.38296323     0.63100
H513        H  0.72989667  0.10242943  0.37058694     0.12500
C514        C  0.68594855  0.03047194  0.44639501     0.55300
H515        H  0.68402074  0.10053497  0.45693515     0.08300
C516        C  0.65542225  0.16189670  0.43331609    -0.05500
C517        C  0.64951397  0.19238614  0.44478361    -0.06200
C518        C  0.68244766  0.22694416  0.45640271    -0.15800
C519        C  0.72275877  0.23220364  0.45644344    -0.01400
C520        C  0.72880813  0.20188217  0.44485524    -0.08900
C521        C  0.61864726  0.12392405  0.42169438     0.65300
H522        H  0.61894293  0.18909080  0.44526199     0.10800
C523        C  0.75886900  0.26949621  0.46897014     0.63700
H524        H  0.75917558  0.20469156  0.44501510     0.08200
F525        F  0.64647785  0.99784400  0.44124807    -0.19300
F526        F  0.68698706  0.04175694  0.47096839    -0.15500
F527        F  0.71449489  0.01741428  0.44366584    -0.19000
F528        F  0.76613199  0.20881506  0.39430816    -0.22400
F529        F  0.70090482  0.18360876  0.38006745    -0.23900
F530        F  0.74519302  0.17034148  0.35964661    -0.17900
F531        F  0.79564314  0.26911679  0.46657544    -0.20400
F532        F  0.75075238  0.26956803  0.49396672    -0.21500
F533        F  0.76431641  0.30565224  0.45839925    -0.18700
F534        F  0.58285964  0.12644099  0.42236544    -0.18800
F535        F  0.61104155  0.08863744  0.43438759    -0.22600
F536        F  0.62693480  0.12006303  0.39719422    -0.24200
C537        C  0.48307993  0.15378540  0.56438704    -0.11000
C538        C  0.46442919  0.16839137  0.58096295     0.11500
C539        C  0.48077529  0.21153215  0.58397057    -0.02900
C540        C  0.51575549  0.23896408  0.57003703    -0.05600
C541        C  0.53478872  0.22449962  0.55349772    -0.16400
C542        C  0.51771841  0.18108640  0.55016749     0.02600
C543        C  0.42859183  0.13736928  0.59551363     0.12500
C544        C  0.46168168  0.22838650  0.60206645     0.63100
H545        H  0.52903550  0.27216013  0.57230379     0.12500
C546        C  0.53473871  0.16339345  0.53116242     0.55300
H547        H  0.47008550  0.12053189  0.56270409     0.08300
C548        C  0.38811160  0.11478039  0.58523345    -0.05500
C549        C  0.35648903  0.08305695  0.59941495    -0.06200
C550        C  0.36473074  0.07262133  0.62284918    -0.15800
C551        C  0.40494358  0.09566839  0.63327061    -0.01400
C552        C  0.43633364  0.12817457  0.61942980    -0.08900
C553        C  0.37893635  0.12254328  0.55895008     0.65300
H554        H  0.32571787  0.06400021  0.59155250     0.10800
C555        C  0.41461941  0.08509214  0.65862480     0.63700
H556        H  0.46769489  0.14560830  0.62672024     0.08200
F557        F  0.50919068  0.12089793  0.52830338    -0.19300
F558        F  0.57345288  0.17085546  0.53856916    -0.15500
F559        F  0.53786955  0.18152604  0.50831887    -0.19000
F560        F  0.46624022  0.21809339  0.62598953    -0.22400
F561        F  0.41986766  0.21164266  0.59696139    -0.23900
F562        F  0.48041216  0.27118569  0.60073867    -0.17900
F563        F  0.40800304  0.04515530  0.65854694    -0.20400
F564        F  0.38901920  0.08786317  0.67606845    -0.21500
F565        F  0.45547502  0.11181311  0.66557905    -0.18700
F566        F  0.33702452  0.09904659  0.55328827    -0.18800
F567        F  0.40034320  0.11220733  0.54224561    -0.22600
F568        F  0.39099133  0.16390699  0.55599743    -0.24200
C569        C  0.51555609  0.30131017  0.40057680    -0.11000
C570        C  0.48683376  0.31220607  0.40876993     0.11500
C571        C  0.48810081  0.32532453  0.43347974    -0.02900
C572        C  0.52046479  0.32992188  0.44889557    -0.05600
C573        C  0.55058600  0.32039535  0.44071602    -0.16400
C574        C  0.54734308  0.30452132  0.41616138     0.02600
C575        C  0.45528283  0.30939480  0.39111619     0.12500
C576        C  0.45507652  0.33394059  0.44357183     0.63100
H577        H  0.52223654  0.34106539  0.46764256     0.12500
C578        C  0.57629608  0.29031140  0.40614069     0.55300
H579        H  0.51282055  0.29042729  0.38165834     0.08300
C580        C  0.46225046  0.34370585  0.37655042    -0.05500
C581        C  0.42842237  0.34164492  0.36380301    -0.06200
C582        C  0.38876637  0.30603875  0.36473521    -0.15800
C583        C  0.38303431  0.27008706  0.37723036    -0.01400
C584        C  0.41683164  0.27252159  0.39029375    -0.08900
C585        C  0.50505397  0.38229423  0.37483745     0.65300
H586        H  0.43224218  0.36849137  0.35379253     0.10800
C587        C  0.34114873  0.23022674  0.37804450     0.63700
H588        H  0.41304457  0.24638877  0.40108610     0.08200
F589        F  0.61627960  0.32381410  0.40441813    -0.19300
F590        F  0.56453058  0.27284780  0.38272727    -0.15500
F591        F  0.57574125  0.26043942  0.42156218    -0.19000
F592        F  0.41646527  0.29838045  0.44186824    -0.22400
F593        F  0.45454800  0.36519301  0.43017112    -0.23900
F594        F  0.46209013  0.34611403  0.46820817    -0.17900
F595        F  0.32908897  0.21461298  0.35429946    -0.20400
F596        F  0.31169247  0.23791819  0.38828408    -0.21500
F597        F  0.34251222  0.19996629  0.39214735    -0.18700
F598        F  0.50495038  0.41204323  0.35959662    -0.18800
F599        F  0.53276501  0.37164070  0.36520025    -0.22600
F600        F  0.51877791  0.39981169  0.39803185    -0.24200
C601        C  0.78922518  0.50006977  0.41386098    -0.11000
C602        C  0.82973214  0.52460652  0.42294491     0.11500
C603        C  0.84063791  0.51578689  0.44634244    -0.02900
C604        C  0.81067083  0.48104437  0.45947080    -0.05600
C605        C  0.77019559  0.45555192  0.45018733    -0.16400
C606        C  0.75890615  0.46565565  0.42711460     0.02600
C607        C  0.86009173  0.55977489  0.40761544     0.12500
C608        C  0.88354118  0.54334328  0.45752957     0.63100
H609        H  0.81875409  0.47346355  0.47720458     0.12500
C610        C  0.71500271  0.44135580  0.41667043     0.55300
H611        H  0.78168386  0.50813216  0.39610286     0.08300
C612        C  0.88410013  0.55448611  0.38929869    -0.05500
C613        C  0.91533851  0.58987436  0.37731330    -0.06200
C614        C  0.92236714  0.62981097  0.38260118    -0.15800
C615        C  0.89606879  0.63462714  0.39953373    -0.01400
C616        C  0.86518086  0.59920020  0.41183576    -0.08900
C617        C  0.87679838  0.51171368  0.38254335     0.65300
H618        H  0.93531644  0.58677748  0.36401679     0.10800
C619        C  0.90156167  0.67694328  0.40533317     0.63700
H620        H  0.84545024  0.60206076  0.42544153     0.08200
F621        F  0.70627206  0.40217002  0.40941338    -0.19300
F622        F  0.70985411  0.46060356  0.39617428    -0.15500
F623        F  0.68673626  0.43801405  0.43440743    -0.19000
F624        F  0.89028273  0.58302001  0.46096430    -0.22400
F625        F  0.91374728  0.54509591  0.44195573    -0.23900
F626        F  0.88781029  0.52879336  0.48028842    -0.17900
F627        F  0.87391721  0.67467213  0.42321719    -0.20400
F628        F  0.89470385  0.69338847  0.38412524    -0.21500
F629        F  0.94141865  0.70336021  0.41398418    -0.18700
F630        F  0.90417269  0.51374490  0.36455105    -0.18800
F631        F  0.83686758  0.48740692  0.37344523    -0.22600
F632        F  0.88178472  0.49272235  0.40316026    -0.24200
C633        C  0.65532212  0.53994817  0.62909375    -0.11000
C634        C  0.68115415  0.54601148  0.60879750     0.11500
C635        C  0.71198276  0.58668077  0.60189487    -0.02900
C636        C  0.71504335  0.62040150  0.61529734    -0.05600
C637        C  0.68734438  0.61442254  0.63447099    -0.16400
C638        C  0.65775832  0.57381870  0.64206466     0.02600
C639        C  0.67294313  0.50956683  0.59367705     0.12500
C640        C  0.73984722  0.59450472  0.57961225     0.63100
H641        H  0.73692632  0.65188322  0.60961655     0.12500
C642        C  0.62856623  0.56658866  0.66345134     0.55300
H643        H  0.63190712  0.50851741  0.63390451     0.08300
C644        C  0.69031368  0.48466866  0.59957846    -0.05500
C645        C  0.68471867  0.45343918  0.58277479    -0.06200
C646        C  0.66141025  0.44584683  0.56086044    -0.15800
C647        C  0.64200694  0.46938623  0.55573118    -0.01400
C648        C  0.64814513  0.50096691  0.57244077    -0.06900
C649        C  0.71425382  0.49094205  0.62355931     0.65300
H650        H  0.69858122  0.43456905  0.58662901     0.10800
C651        C  0.61646906  0.46259015  0.53236925     0.63700
H652        H  0.63450057  0.52009954  0.56879167     0.08200
F653        F  0.60595566  0.52505331  0.66988353    -0.19300
F654        F  0.60090282  0.57942722  0.65702338    -0.15500
F655        F  0.65126634  0.58885745  0.68397551    -0.19000
F656        F  0.71616861  0.58202675  0.55818174    -0.22400
F657        F  0.76043481  0.57255027  0.58190149    -0.23900
F658        F  0.76942052  0.63614332  0.57725547    -0.17900
F659        F  0.58094722  0.42385219  0.53301729    -0.20400
F660        F  0.63962295  0.46530162  0.51172123    -0.21500
F661        F  0.60432259  0.49190737  0.52997347    -0.18700
F662        F  0.72987361  0.46432410  0.62522616    -0.18800
F663        F  0.68817521  0.48341475  0.64348295    -0.22600
F664        F  0.74726002  0.53120497  0.62514557    -0.24200
C665        C  0.83165464  0.03060114  0.16416717    -0.11000
C666        C  0.82554489  0.01027273  0.18694186     0.11500
C667        C  0.78669241  0.99357220  0.19905266    -0.02900
C668        C  0.75497334  0.99725111  0.18765436    -0.05600
C669        C  0.76088040  0.01733130  0.16490403    -0.16400
C670        C  0.79971665  0.03436596  0.15276726     0.02600
C671        C  0.86167875  0.01082037  0.19865065     0.12500
C672        C  0.77670711  0.97177306  0.22389572     0.63100
H673        H  0.72495352  0.98406399  0.19664742     0.12500
C674        C  0.80709969  0.05552092  0.12776845     0.55300
H675        H  0.86188535  0.04382871  0.15551958     0.08300
C676        C  0.87124449  0.97914953  0.19473943    -0.05500
C677        C  0.90471777  0.98094245  0.20790948    -0.06200
C678        C  0.92847923  0.01307168  0.22492471    -0.15800
C679        C  0.91903401  0.04546849  0.22823499    -0.01400
C680        C  0.88539550  0.04315501  0.21516721    -0.08900
C681        C  0.84537244  0.94318755  0.17727127     0.65300
H682        H  0.91185198  0.95639857  0.20548244     0.10800
C683        C  0.94265351  0.08373120  0.24451284     0.63700
H684        H  0.87729949  0.06704131  0.21792103     0.08200
F685        F  0.84566379  0.06618524  0.11824128    -0.19300
F686        F  0.80527531  0.09147177  0.13018188    -0.15500
F687        F  0.77717424  0.02918805  0.11098013    -0.19000
F688        F  0.76757220  0.99402707  0.24073277    -0.22400
F689        F  0.80880787  0.96769096  0.23336927    -0.23900
F690        F  0.74238946  0.93240143  0.22135054    -0.17900
F691        F  0.95328487  0.11889618  0.23066756    -0.20400
F692        F  0.97877791  0.08824985  0.25420386    -0.21500
F693        F  0.91738731  0.08191704  0.26377590    -0.18700
F694        F  0.85926383  0.91507530  0.17651232    -0.18800
F695        F  0.84731964  0.95804110  0.15356849    -0.22600
F696        F  0.80444524  0.92229032  0.18496527    -0.24200
C697        C  0.97084137  0.81777266  0.15553183    -0.11000
C698        C  0.98814372  0.82988230  0.17933557     0.11500
C699        C  0.00619695  0.80873894  0.19091401    -0.02900
C700        C  0.00839296  0.77742355  0.17769942    -0.05600
C701        C  0.99106791  0.76511207  0.15396271    -0.16400
C702        C  0.97146848  0.78511958  0.14265509     0.02600
C703        C  0.98634701  0.86427226  0.19212946     0.12500
C704        C  0.02202136  0.81854744  0.21738952     0.63100
H705        H  0.02256598  0.76124175  0.18615110     0.12500
C706        C  0.95183504  0.77245840  0.11709675     0.55300
H707        H  0.95648263  0.83390457  0.14726281     0.08300
C708        C  0.01798406  0.90625546  0.18942320    -0.05500
C709        C  0.01655318  0.93659797  0.20424651    -0.06200
C710        C  0.98372072  0.92646727  0.22074471    -0.15800
C711        C  0.95002394  0.88495649  0.22152056    -0.01400
C712        C  0.95275870  0.85428675  0.20785619    -0.08900
C713        C  0.05277326  0.91889136  0.17079608     0.65300
H714        H  0.04148086  0.96860634  0.20328886     0.10800
C715        C  0.91025502  0.87159730  0.23566837     0.63700
H716        H  0.92812171  0.82213897  0.20920385     0.08200
F717        F  0.93795157  0.79840745  0.10867472    -0.19300
F718        F  0.91812514  0.73254236  0.11784558    -0.15500
F719        F  0.98057895  0.77398498  0.10033465    -0.19000
F720        F  0.98937197  0.80975889  0.23309847    -0.22400
F721        F  0.05177870  0.86005737  0.21958148    -0.23900
F722        F  0.03965251  0.79537346  0.22488718    -0.17900
F723        F  0.87639882  0.84536757  0.22106423    -0.20400
F724        F  0.90562218  0.90481774  0.24212601    -0.21500
F725        F  0.90988503  0.85044892  0.25675719    -0.18700
F726        F  0.08100024  0.96113164  0.17169912    -0.18800
F727        F  0.03615035  0.90908596  0.14714619    -0.22600
F728        F  0.07409868  0.89819429  0.17540674    -0.24200
C729        C  0.19711360  0.19471165  0.18993592    -0.11000
C730        C  0.17834680  0.15586742  0.17809214     0.11500
C731        C  0.19035770  0.15241630  0.15375839    -0.02900
C732        C  0.22205682  0.18826968  0.14230466    -0.05600
C733        C  0.24022635  0.22734671  0.15393291    -0.16400
C734        C  0.22777331  0.23082383  0.17816942     0.02600
C735        C  0.14190657  0.12102283  0.19028997     0.12500
C736        C  0.16887585  0.11138982  0.13971634     0.63100
H737        H  0.23206976  0.18633823  0.12378023     0.12500
C738        C  0.24657233  0.27232885  0.19154652     0.55300
H739        H  0.18633448  0.19666256  0.20820991     0.08300
C740        C  0.14532676  0.09584943  0.20852912    -0.05500
C741        C  0.10885986  0.06525999  0.22006241    -0.06200
C742        C  0.06993076  0.06181892  0.21574135    -0.15800
C743        C  0.06685656  0.08727831  0.19714140    -0.01400
C744        C  0.10305535  0.11596927  0.18461749    -0.08900
C745        C  0.18735229  0.10273885  0.21673558     0.65300
H746        H  0.11087347  0.04537010  0.23378472     0.10800
C747        C  0.02698482  0.08708175  0.19118643     0.63700
H748        H  0.10178075  0.13612333  0.17067823     0.08200
F749        F  0.23416192  0.26776341  0.21605509    -0.19300
F750        F  0.23409377  0.29731523  0.18000780    -0.15500
F751        F  0.28947541  0.29178074  0.19121446    -0.19000
F752        F  0.12727162  0.09842829  0.13651473    -0.22400
F753        F  0.17229579  0.08143355  0.15276499    -0.23900
F754        F  0.18604413  0.11474416  0.11651694    -0.17900
F755        F  0.03358301  0.11936601  0.17567262    -0.20400
F756        F  0.01028679  0.09186651  0.21266313    -0.21500
F757        F  0.99895764  0.05057731  0.17947559    -0.18700
F758        F  0.18356504  0.07445660  0.23460414    -0.18800
F759        F  0.21080211  0.14216476  0.22668996    -0.22600
F760        F  0.20825040  0.09879635  0.19678300    -0.24200
C761        C  0.21077924  0.52206708  0.90551261    -0.11000
C762        C  0.17571774  0.48821162  0.91585172     0.11500
C763        C  0.16819473  0.48774085  0.94156150    -0.02900
C764        C  0.19705767  0.52107716  0.95623173    -0.05600
C765        C  0.23211729  0.55571204  0.94600018    -0.16400
C766        C  0.23834291  0.55684000  0.91983164     0.02600
C767        C  0.14619525  0.45449877  0.89910281     0.12500
C768        C  0.12937210  0.45264973  0.95342406     0.63100
H769        H  0.19202789  0.52023007  0.97601124     0.12500
C770        C  0.27253645  0.59456107  0.90653370     0.55300
H771        H  0.21580056  0.52130442  0.88580892     0.08300
C772        C  0.11847476  0.45961692  0.88357681    -0.05500
C773        C  0.08858394  0.42515492  0.87010186    -0.06200
C774        C  0.08434674  0.38566584  0.87246934    -0.15800
C775        C  0.11281142  0.38084706  0.88755530    -0.01400
C776        C  0.14433835  0.41599859  0.89995873    -0.08900
C777        C  0.11922265  0.50072538  0.88201443     0.65300
H778        H  0.06679995  0.42835316  0.85833515     0.10800
C779        C  0.10829581  0.33859951  0.89201383     0.63700
H780        H  0.16655853  0.41327068  0.91158685     0.08200
F781        F  0.27050180  0.62954388  0.91268520    -0.19300
F782        F  0.26871171  0.59015760  0.88101197    -0.15500
F783        F  0.31101418  0.60028924  0.91298976    -0.19000
F784        F  0.12985778  0.41593424  0.95176438    -0.22400
F785        F  0.09436468  0.44796407  0.94150458    -0.23900
F786        F  0.12645138  0.46026757  0.97825080    -0.17900
F787        F  0.13697220  0.34061205  0.90915194    -0.20400
F788        F  0.11430324  0.32313552  0.87009502    -0.21500
F789        F  0.06901834  0.31147951  0.90103107    -0.18700
F790        F  0.08683385  0.49752522  0.86771345    -0.18800
F791        F  0.15597919  0.53055113  0.87144913    -0.22600
F792        F  0.11576589  0.51372864  0.90545660    -0.24200
C793        C  0.32286068  0.48239852  0.05995970    -0.11000
C794        C  0.30487968  0.47428338  0.08358719     0.11500
C795        C  0.29480805  0.50257006  0.09458837    -0.02900
C796        C  0.30124729  0.53736180  0.08082186    -0.05600
C797        C  0.31906140  0.54529000  0.05713726    -0.16400
C798        C  0.33022279  0.51763543  0.04646330     0.02600
C799        C  0.29946732  0.43696967  0.09670719     0.12500
C800        C  0.27818654  0.49640849  0.12084832     0.63100
H801        H  0.29314577  0.55912230  0.08860064     0.12500
C802        C  0.34897466  0.52494964  0.02071956     0.55300
H803        H  0.33125911  0.46082556  0.05223094     0.08300
C804        C  0.26627811  0.39649541  0.09120114    -0.05500
C805        C  0.26639923  0.36222292  0.10202291    -0.06200
C806        C  0.29895540  0.36748820  0.11755009    -0.15800
C807        C  0.33079430  0.40806858  0.12413103    -0.01400
C808        C  0.33064332  0.44222627  0.11335889    -0.08900
C809        C  0.23181587  0.38953805  0.07329853     0.65300
H810        H  0.24237875  0.33092024  0.09724878     0.10800
C811        C  0.36502528  0.41540380  0.14227259     0.63700
H812        H  0.35590364  0.47343442  0.11708917     0.08200
F813        F  0.35466601  0.49270931  0.01308961    -0.19300
F814        F  0.38725077  0.56109059  0.02062488    -0.15500
F815        F  0.32296133  0.52845932  0.00380642    -0.19000
F816        F  0.30778172  0.49876067  0.13730590    -0.22400
F817        F  0.24262386  0.45797129  0.12300432    -0.23900
F818        F  0.26851642  0.52639823  0.12751554    -0.17900
F819        F  0.39203234  0.40508166  0.13133975    -0.20400
F820        F  0.34799526  0.39142969  0.16320312    -0.21500
F821        F  0.38770098  0.45658064  0.14967576    -0.18700
F822        F  0.20133133  0.34804143  0.07178777    -0.18800
F823        F  0.24794744  0.40257545  0.04985583    -0.22600
F824        F  0.21328432  0.41168653  0.08102810    -0.24200
C825        C  0.32587880  0.81986510  0.92040957    -0.11000
C826        C  0.29438448  0.82621452  0.92950252     0.11500
C827        C  0.26942229  0.80232214  0.94944891    -0.02900
C828        C  0.28004325  0.77570704  0.96158958    -0.05600
C829        C  0.31325473  0.77107624  0.95345872    -0.16400
C830        C  0.33571041  0.79225940  0.93199124     0.02600
C831        C  0.29086079  0.86065223  0.91889693     0.12500
C832        C  0.23144502  0.80441245  0.95738714     0.63100
H833        H  0.26234075  0.75806789  0.97750820     0.12500
C834        C  0.37111975  0.78747966  0.92208244     0.55300
H835        H  0.34372041  0.83803451  0.90467100     0.08300
C836        C  0.31512301  0.90147385  0.92827558    -0.05500
C837        C  0.31233204  0.93344207  0.91661853    -0.06200
C838        C  0.28780964  0.92623519  0.89532618    -0.15800
C839        C  0.26406908  0.88523536  0.88562057    -0.01400
C840        C  0.26570973  0.85290293  0.89795766    -0.08900
C841        C  0.34519524  0.91151811  0.94983471     0.65300
H842        H  0.33039558  0.96483520  0.92373874     0.10800
C843        C  0.23884090  0.87561138  0.86183134     0.63700
H844        H  0.24820230  0.82133115  0.89102848     0.08200
F845        F  0.40039408  0.79710224  0.94055965    -0.19300
F846        F  0.39066390  0.81349223  0.90220594    -0.15500
F847        F  0.35609635  0.74709980  0.91410810    -0.19000
F848        F  0.20350349  0.79189954  0.93788105    -0.22400
F849        F  0.24247575  0.84447438  0.96409372    -0.23900
F850        F  0.21166308  0.77874760  0.97734960    -0.17900
F851        F  0.26364023  0.90110237  0.84298720    -0.20400
F852        F  0.20553437  0.88162044  0.86542203    -0.21500
F853        F  0.22319159  0.83488433  0.85423059    -0.18700
F854        F  0.36524943  0.95322016  0.95615851    -0.18800
F855        F  0.37515569  0.90175296  0.94345666    -0.22600
F856        F  0.32426770  0.88896113  0.97051208    -0.24200
C857        C  0.13413015  0.72519201  0.09842920    -0.11000
C858        C  0.13701398  0.69080870  0.10601288     0.11500
C859        C  0.11142475  0.66520395  0.12528853    -0.02900
C860        C  0.07955380  0.67159691  0.13398916    -0.05600
C861        C  0.07401541  0.70367333  0.12469117    -0.16400
C862        C  0.10300571  0.73234282  0.10759494     0.02600
C863        C  0.16584657  0.68165699  0.09232860     0.12500
C864        C  0.11810679  0.63178715  0.13665806     0.63100
H865        H  0.05783442  0.65079543  0.14765558     0.12500
C866        C  0.09993563  0.76898054  0.09813772     0.55300
H867        H  0.15533888  0.74524140  0.08431204     0.08300
C868        C  0.15354871  0.65813791  0.07006729    -0.05500
C869        C  0.18359898  0.65438894  0.05646484    -0.06200
C870        C  0.22537411  0.67453754  0.06396236    -0.15800
C871        C  0.23745440  0.69746388  0.08652528    -0.01400
C872        C  0.20715945  0.70042311  0.10040681    -0.08900
C873        C  0.10920663  0.63823593  0.06030302     0.65300
H874        H  0.17502132  0.63706056  0.03921396     0.10800
C875        C  0.28196917  0.71878467  0.09601022     0.63700
H876        H  0.21574864  0.71870413  0.11730262     0.08200
F877        F  0.06190952  0.75507695  0.08668089    -0.19300
F878        F  0.13080252  0.79225156  0.08116117    -0.15500
F879        F  0.10408002  0.79473448  0.11775814    -0.19000
F880        F  0.15742337  0.65004013  0.14702479    -0.22400
F881        F  0.11457660  0.60351097  0.11884270    -0.23900
F882        F  0.08950182  0.61026589  0.15510195    -0.17900
F883        F  0.28500061  0.73250062  0.12020752    -0.20400
F884        F  0.30685720  0.75288559  0.08146477    -0.21500
F885        F  0.29673502  0.69140309  0.09540352    -0.18700
F886        F  0.10422572  0.61728748  0.03818697    -0.18800
F887        F  0.09874632  0.66838836  0.05617070    -0.22600
F888        F  0.08190646  0.61008034  0.07726984    -0.24200
C889        C  0.49497728  0.84931741  0.07913406    -0.11000
C890        C  0.51953027  0.83648189  0.09149112     0.11500
C891        C  0.50913965  0.79459190  0.09057813    -0.02900
C892        C  0.47476290  0.76676171  0.07619661    -0.05600
C893        C  0.45062165  0.77955468  0.06276019    -0.16400
C894        C  0.46094899  0.82194239  0.06434624     0.02600
C895        C  0.55709005  0.86864474  0.10429190     0.12500
C896        C  0.53405994  0.77945484  0.10493616     0.63100
H897        H  0.46660460  0.73452380  0.07541399     0.12500
C898        C  0.43763945  0.83927805  0.05024429     0.55300
H899        H  0.50375680  0.88170774  0.08067329     0.08300
C900        C  0.59346395  0.89543345  0.09084530    -0.05500
C901        C  0.62624710  0.92870147  0.10341256    -0.06200
C902        C  0.62330233  0.93600351  0.12854025    -0.15800
C903        C  0.58790652  0.90849004  0.14229322    -0.01400
C904        C  0.55490520  0.87483965  0.12979964    -0.08900
C905        C  0.59717222  0.88992031  0.06320770     0.65300
H906        H  0.65391577  0.95060510  0.09344395     0.10800
C907        C  0.58490093  0.91564366  0.16967982     0.63700
H908        H  0.52657823  0.85404261  0.13957844     0.08200
F909        F  0.45522871  0.88170303  0.05369243    -0.19300
F910        F  0.39701216  0.82063623  0.05839442    -0.15500
F911        F  0.43840116  0.83235704  0.02509812    -0.19000
F912        F  0.53019366  0.78395246  0.13005568    -0.22400
F913        F  0.57557726  0.80225485  0.09860667    -0.23900
F914        F  0.52042554  0.73802901  0.10017692    -0.17900
F915        F  0.58649578  0.95318126  0.17312855    -0.20400
F916        F  0.61774044  0.91648600  0.18220352    -0.21500
F917        F  0.54826415  0.88456840  0.17981889    -0.18700
F918        F  0.63639630  0.91789365  0.05441089    -0.18800
F919        F  0.56873143  0.89609838  0.05026221    -0.22600
F920        F  0.58974479  0.85034650  0.05837411    -0.24200
C921        C  0.61390609  0.74834936  0.93430184    -0.11000
C922        C  0.57711888  0.72698707  0.92043541     0.11500
C923        C  0.57855249  0.71649944  0.89537212    -0.02900
C924        C  0.61667703  0.72376872  0.88579048    -0.05600
C925        C  0.65273347  0.74172662  0.90043941    -0.16400
C926        C  0.65197773  0.75570455  0.92467139     0.02600
C927        C  0.53739285  0.71472726  0.93302160     0.12500
C928        C  0.53983025  0.69678589  0.87917172     0.63100
H929        H  0.61814893  0.71321376  0.86729143     0.12500
C930        C  0.69097265  0.77636029  0.94054178     0.55300
H931        H  0.61209984  0.75714293  0.95321051     0.08300
C932        C  0.51621025  0.67761141  0.94691539    -0.05500
C933        C  0.47863433  0.66800264  0.95846118    -0.06200
C934        C  0.46222326  0.69448206  0.95667974    -0.15800
C935        C  0.48421546  0.73221935  0.94329503    -0.01400
C936        C  0.52156439  0.74158174  0.93160520    -0.08900
C937        C  0.53383836  0.64896254  0.95008669     0.65300
H938        H  0.46187340  0.63982521  0.96921145     0.10800
C939        C  0.46912046  0.76310560  0.94187608     0.63700
H940        H  0.53890472  0.77007826  0.92120891     0.08200
F941        F  0.68436196  0.79045970  0.96285704    -0.19300
F942        F  0.72206878  0.80999788  0.92803570    -0.15500
F943        F  0.70404176  0.74838727  0.94555801    -0.19000
F944        F  0.52371537  0.72294698  0.87774686    -0.22400
F945        F  0.51015280  0.65928401  0.88906160    -0.23900
F946        F  0.54830464  0.68953262  0.85531473    -0.17900
F947        F  0.49809877  0.79999993  0.93090872    -0.20400
F948        F  0.46149810  0.77229630  0.96545670    -0.21500
F949        F  0.43310442  0.74637817  0.92789505    -0.18700
F950        F  0.50713428  0.61348817  0.96315016    -0.18800
F951        F  0.57103154  0.66950088  0.96293743    -0.22600
F952        F  0.54072832  0.63677088  0.92723817    -0.24200
C953        C  0.44791707  0.10882687  0.87419214    -0.11000
C954        C  0.44952217  0.13927165  0.89015853     0.11500
C955        C  0.41248766  0.13911464  0.89625017    -0.02900
C956        C  0.37427402  0.10568157  0.88811218    -0.05600
C957        C  0.37247696  0.07272110  0.87457892    -0.16400
C958        C  0.40970751  0.07502670  0.86643408     0.02600
C959        C  0.48956069  0.16832542  0.90243550     0.12500
C960        C  0.41335497  0.17308654  0.91227038     0.63100
H961        H  0.34539574  0.10351055  0.89378806     0.12500
C962        C  0.40913251  0.04124612  0.85037524     0.55300
H963        H  0.47674440  0.11020766  0.86927912     0.08300
C964        C  0.50292751  0.15653964  0.92386396    -0.05500
C965        C  0.53797260  0.18694955  0.93673199    -0.06200
C966        C  0.55988779  0.22867964  0.92904494    -0.15800
C967        C  0.54757550  0.23980302  0.90661076    -0.01400
C968        C  0.51273952  0.20896155  0.89359008    -0.08900
C969        C  0.47968440  0.11214462  0.93338933     0.65300
H970        H  0.54800764  0.17829716  0.95336594     0.10800
C971        C  0.56941832  0.28396388  0.89672374     0.63700
H972        H  0.50208843  0.21660813  0.87681136     0.08200
F973        F  0.39803287  0.00627308  0.86444557    -0.19300
F974        F  0.44772133  0.05397655  0.84012410    -0.15500
F975        F  0.38093369  0.03112458  0.83116033    -0.19000
F976        F  0.43639792  0.21105649  0.90072530    -0.22400
F977        F  0.43105691  0.17441459  0.93505690    -0.23900
F978        F  0.37387561  0.16663654  0.91629924    -0.17900
F979        F  0.61015117  0.29631592  0.89091620    -0.20400
F980        F  0.56842964  0.31052175  0.91429983    -0.21500
F981        F  0.55061799  0.28745853  0.87542663    -0.18700
F982        F  0.49691668  0.10774149  0.95510769    -0.18800
F983        F  0.48096377  0.08569262  0.91588853    -0.22600
F984        F  0.43871265  0.10022841  0.93808260    -0.24200
C985        C  0.48414057  0.32125244  0.04525038    -0.11000
C986        C  0.47592944  0.30056784  0.06800171     0.11500
C987        C  0.50123824  0.28476656  0.07636251    -0.02900
C988        C  0.53526588  0.29162560  0.06179404    -0.05600
C989        C  0.54475587  0.31429196  0.03971441    -0.16400
C990        C  0.51885095  0.32921167  0.03105633     0.02600
C991        C  0.44145498  0.29758443  0.08302098     0.12500
C992        C  0.49260884  0.26128473  0.10061503     0.63100
H993        H  0.55531102  0.28004444  0.06775671     0.12500
C994        C  0.52758255  0.35301472  0.00690106     0.55300
H995        H  0.46369185  0.33223507  0.03910393     0.08300
C996        C  0.44564494  0.33219799  0.09629202    -0.05500
C997        C  0.41101427  0.32811268  0.10893228    -0.06200
C998        C  0.37242042  0.29105673  0.10833276    -0.15800
C999        C  0.36873537  0.25578535  0.09582370    -0.01400
C1000       C  0.40354608  0.25998077  0.08307524    -0.08900
C1001       C  0.48610272  0.37371956  0.09653103     0.65300
H1002       H  0.41355745  0.35441308  0.11884136     0.10800
C1003       C  0.32833608  0.21435398  0.09514304     0.63700
H1004       H  0.40134166  0.23417928  0.07259620     0.08200
F1005       F  0.49617697  0.36099469  0.00082830    -0.19300
F1006       F  0.53106403  0.33019950  0.98777599    -0.15500
F1007       F  0.56417962  0.39068963  0.00896791    -0.19000
F1008       F  0.45466285  0.22489675  0.09924535    -0.22400
F1009       F  0.49187693  0.28537489  0.11990385    -0.23900
F1010       F  0.52265866  0.25100430  0.10593992    -0.17900
F1011       F  0.29681303  0.21950519  0.08551895    -0.20400
F1012       F  0.31808867  0.19838632  0.11884144    -0.21500
F1013       F  0.33140537  0.18541684  0.08056924    -0.18700
F1014       F  0.48460735  0.40170398  0.11279192    -0.18800
F1015       F  0.49395920  0.39101477  0.07314001    -0.22600
F1016       F  0.51865275  0.36826505  0.10371384    -0.24200
C1017       C  0.71871104  0.52505195  0.92184083    -0.11000
C1018       C  0.68649884  0.53366443  0.92474541     0.11500
C1019       C  0.64865788  0.50422730  0.93588999    -0.02900
C1020       C  0.64564686  0.46798195  0.94565427    -0.05600
C1021       C  0.67861021  0.46024037  0.94372417    -0.16400
C1022       C  0.71554815  0.48862506  0.93133224     0.02600
C1023       C  0.69428143  0.57460002  0.91653270     0.12500
C1024       C  0.61179406  0.51098695  0.93735442     0.63100
H1025       H  0.61760417  0.44540575  0.95502897     0.12500
C1026       C  0.75213115  0.48152883  0.92928828     0.55300
H1027       H  0.74694166  0.54792043  0.91276329     0.08300
C1028       C  0.71608759  0.61032733  0.93171621    -0.05500
C1029       C  0.72393087  0.64869064  0.92237261    -0.06200
C1030       C  0.71053994  0.65183755  0.89865105    -0.15800
C1031       C  0.68846735  0.61611420  0.88359535    -0.01400
C1032       C  0.68135930  0.57786912  0.89268197    -0.08900
C1033       C  0.73075883  0.60781628  0.95763904     0.65300
H1034       H  0.73986868  0.67649740  0.93368597     0.10800
C1035       C  0.67195341  0.61852872  0.85832174     0.63700
H1036       H  0.66515699  0.55004485  0.88141298     0.08200
F1037       F  0.78561965  0.51409545  0.91747393    -0.19300
F1038       F  0.74068984  0.44572242  0.91584037    -0.15500
F1039       F  0.76492553  0.47768646  0.95272251    -0.19000
F1040       F  0.59943575  0.51432067  0.91371617    -0.22400
F1041       F  0.62245558  0.54693945  0.95041461    -0.23900
F1042       F  0.57817744  0.47833524  0.94903659    -0.17900
F1043       F  0.65205379  0.58032561  0.84645233    -0.20400
F1044       F  0.70448569  0.64603705  0.84358522    -0.21500
F1045       F  0.64379788  0.63210296  0.86085622    -0.18700
F1046       F  0.74955680  0.64595376  0.96957786    -0.18800
F1047       F  0.75928426  0.59458309  0.95634518    -0.22600
F1048       F  0.69746078  0.58015476  0.97185865    -0.24200
C1049       C  0.80213894  0.31752577  0.89334752    -0.11000
C1050       C  0.84214604  0.33204954  0.90274701     0.11500
C1051       C  0.85354084  0.35230453  0.92603939    -0.02900
C1052       C  0.82331501  0.35530094  0.93988456    -0.05600
C1053       C  0.78248214  0.33932397  0.93106547    -0.16400
C1054       C  0.77171787  0.32054635  0.90706729     0.02600
C1055       C  0.87163120  0.32556520  0.88776152     0.12500
C1056       C  0.89738488  0.37046789  0.93627852     0.63100
H1057       H  0.83149416  0.37028676  0.95787428     0.12500
C1058       C  0.72841511  0.30267287  0.89594210     0.55300
H1059       H  0.79489417  0.30323173  0.87514712     0.08300
C1060       C  0.87129075  0.28742824  0.88784813    -0.05500
C1061       C  0.90309463  0.28505451  0.87531389    -0.06200
C1062       C  0.93496202  0.31966029  0.86314871    -0.15800
C1063       C  0.93306388  0.35667875  0.86136971    -0.01400
C1064       C  0.90137059  0.35893457  0.87389352    -0.08900
C1065       C  0.83849699  0.25009491  0.90197609     0.65300
H1066       H  0.90493602  0.25703925  0.87642051     0.10800
C1067       C  0.96474231  0.39521821  0.84763075     0.63700
H1068       H  0.90050992  0.38756259  0.87351920     0.08200
F1069       F  0.69914805  0.27371516  0.91185970    -0.19300
F1070       F  0.72458446  0.28294614  0.87349370    -0.15500
F1071       F  0.71993128  0.33422549  0.89171892    -0.19000
F1072       F  0.92521949  0.40169649  0.92091011    -0.22400
F1073       F  0.90784684  0.33987221  0.93782118    -0.23900
F1074       F  0.90132133  0.38731950  0.95970764    -0.17900
F1075       F  0.98720593  0.38680310  0.83060168    -0.20400
F1076       F  0.99174929  0.42422139  0.86459855    -0.21500
F1077       F  0.94477362  0.41221569  0.83473751    -0.18700
F1078       F  0.84508683  0.21678637  0.90067685    -0.18800
F1079       F  0.79966402  0.23760136  0.89211528    -0.22600
F1080       F  0.83904456  0.26030072  0.92668160    -0.24200
C1081       C  0.79013894  0.48853658  0.08980771    -0.11000
C1082       C  0.83114968  0.51421140  0.08203900     0.11500
C1083       C  0.84501524  0.50514643  0.05976304    -0.02900
C1084       C  0.81610303  0.47207803  0.04491168    -0.05600
C1085       C  0.77428769  0.44782228  0.05184319    -0.16400
C1086       C  0.76123911  0.45509309  0.07511620     0.02600
C1087       C  0.85913209  0.55092696  0.09732238     0.12500
C1088       C  0.89016573  0.53036942  0.05177759     0.63100
H1089       H  0.82578076  0.46548039  0.02740610     0.12500
C1090       C  0.71742173  0.42743853  0.08473941     0.55300
H1091       H  0.78074601  0.49555874  0.10728644     0.08300
C1092       C  0.86131293  0.58962466  0.09410112    -0.05500
C1093       C  0.89364071  0.62489259  0.10585514    -0.06200
C1094       C  0.92322894  0.62219656  0.12061064    -0.15800
C1095       C  0.91814601  0.58260148  0.12591110    -0.01400
C1096       C  0.88597068  0.54747689  0.11402937    -0.08900
C1097       C  0.83029477  0.59365535  0.07778536     0.65300
H1098       H  0.89739704  0.65518340  0.10245155     0.10800
C1099       C  0.94685678  0.57710215  0.14350692     0.63700
H1100       H  0.88288114  0.51725581  0.11667780     0.08200
F1101       F  0.68981142  0.43449939  0.07149701    -0.19300
F1102       F  0.71418820  0.43506632  0.10952756    -0.15500
F1103       F  0.70629816  0.38614487  0.08242208    -0.19000
F1104       F  0.91517763  0.52604938  0.06904266    -0.22400
F1105       F  0.90212680  0.57188734  0.04989407    -0.23900
F1106       F  0.89666063  0.51740856  0.02902590    -0.17900
F1107       F  0.95479606  0.60168203  0.16437154    -0.20400
F1108       F  0.98379476  0.58784187  0.13172567    -0.21500
F1109       F  0.92931299  0.53631482  0.15126631    -0.18700
F1110       F  0.83806559  0.63407150  0.07714790    -0.18800
F1111       F  0.79061561  0.56866529  0.08686582    -0.22600
F1112       F  0.83209361  0.58157206  0.05379797    -0.24200
C1113       C  0.66191821  0.12698818  0.11384717    -0.11000
C1114       C  0.68903062  0.14430774  0.09377971     0.11500
C1115       C  0.71988856  0.13366144  0.08929985    -0.02900
C1116       C  0.72111639  0.10387101  0.10453560    -0.05600
C1117       C  0.69237890  0.08463559  0.12367976    -0.16400
C1118       C  0.66277766  0.09674542  0.12887988     0.02600
C1119       C  0.68443590  0.17352683  0.07756119     0.12500
C1120       C  0.75078659  0.15318233  0.06825472     0.63100
H1121       H  0.74334089  0.09392110  0.10089471     0.12500
C1122       C  0.63230691  0.07777479  0.15012690     0.55300
H1123       H  0.63918993  0.13641940  0.11710412     0.08300
C1124       C  0.65608997  0.15961301  0.05747396    -0.05500
C1125       C  0.65614672  0.18932633  0.04155556    -0.06200
C1126       C  0.68287964  0.23206180  0.04550161    -0.15800
C1127       C  0.70972185  0.24588197  0.06650759    -0.01400
C1128       C  0.71000971  0.21602145  0.08215523    -0.08900
C1129       C  0.62551737  0.11372216  0.05316240     0.65300
H1130       H  0.63515296  0.17934644  0.02582074     0.10800
C1131       C  0.73717255  0.29163115  0.07294461     0.63700
H1132       H  0.73076741  0.22552703  0.09799925     0.08200
F1133       F  0.60362391  0.03675882  0.14484253    -0.19300
F1134       F  0.61083685  0.09854391  0.15429652    -0.15500
F1135       F  0.65348742  0.07976357  0.17165041    -0.19000
F1136       F  0.77513102  0.19548212  0.07220003    -0.22400
F1137       F  0.72999479  0.14626842  0.04592284    -0.23900
F1138       F  0.77682280  0.13689216  0.06645377    -0.17900
F1139       F  0.75557948  0.29726140  0.09604832    -0.20400
F1140       F  0.71367928  0.31083436  0.07329424    -0.21500
F1141       F  0.76854645  0.31068180  0.05567468    -0.18700
F1142       F  0.60227030  0.10697371  0.03178946    -0.18800
F1143       F  0.59843101  0.09807265  0.07292252    -0.22600
F1144       F  0.64639125  0.09202765  0.05095939    -0.24200
C1145       C  0.89539618  0.92065135  0.81742923    -0.11000
C1146       C  0.88831475  0.88016660  0.81543646     0.11500
C1147       C  0.90965077  0.87077241  0.79723199    -0.02900
C1148       C  0.93646550  0.90239019  0.78099086    -0.05600
C1149       C  0.94258312  0.94274392  0.78238208    -0.16400
C1150       C  0.92308535  0.95266234  0.80169211     0.02600
C1151       C  0.85475980  0.84758818  0.83079822     0.12500
C1152       C  0.90413168  0.82764090  0.79501258     0.63100
H1153       H  0.95286567  0.89575648  0.76679323     0.12500
C1154       C  0.92980207  0.99601682  0.80546933     0.55300
H1155       H  0.87816844  0.92673182  0.83133912     0.08300
C1156       C  0.85945488  0.84314076  0.85650764    -0.05500
C1157       C  0.82483541  0.81299684  0.86982894    -0.06200
C1158       C  0.78625747  0.78807911  0.85819949    -0.15800
C1159       C  0.78186043  0.79223765  0.83252194    -0.01400
C1160       C  0.81613763  0.82253681  0.81931028    -0.08900
C1161       C  0.90060495  0.87014640  0.86975384     0.65300
H1162       H  0.82740276  0.80898382  0.88950434     0.10800
C1163       C  0.74127264  0.76412583  0.81911906     0.63700
H1164       H  0.81308856  0.82710082  0.79976283     0.08200
F1165       F  0.97012084  0.02294590  0.81295138    -0.19300
F1166       F  0.90380977  0.99687319  0.82344722    -0.15500
F1167       F  0.92176037  0.01003530  0.78380326    -0.19000
F1168       F  0.86346797  0.79895351  0.78899632    -0.22400
F1169       F  0.91413289  0.81655619  0.81728060    -0.23900
F1170       F  0.92938609  0.82587059  0.77685846    -0.17900
F1171       F  0.74423847  0.77186360  0.79391527    -0.20400
F1172       F  0.71018127  0.77010030  0.82845575    -0.21500
F1173       F  0.73046204  0.72314695  0.82242324    -0.18700
F1174       F  0.89900075  0.85892577  0.89434344    -0.18800
F1175       F  0.91078208  0.91125774  0.86915729    -0.22600
F1176       F  0.93168977  0.86638560  0.85832752    -0.24200
C1177       C  0.01602558  0.21727671  0.79215943    -0.11000
C1178       C  0.00449064  0.18087906  0.80561392     0.11500
C1179       C  0.99431684  0.17912030  0.83105768    -0.02900
C1180       C  0.99534631  0.21395255  0.84208786    -0.05600
C1181       C  0.00699038  0.25028547  0.82860790    -0.16400
C1182       C  0.01722027  0.25209356  0.80324844     0.02600
C1183       C  0.00579209  0.14614608  0.79278069     0.12500
C1184       C  0.98306123  0.14091756  0.84654962     0.63100
H1185       H  0.98775008  0.21341374  0.86149244     0.12500
C1186       C  0.02903319  0.29064290  0.78805962     0.55300
H1187       H  0.02437388  0.21821902  0.77286192     0.08300
C1188       C  0.97424207  0.11875938  0.77627727    -0.05500
C1189       C  0.97924603  0.08837325  0.76377732    -0.06200
C1190       C  0.01359909  0.08303052  0.76798778    -0.15800
C1191       C  0.04514220  0.11075831  0.78479097    -0.01400
C1192       C  0.04072267  0.14207677  0.79646315    -0.08900
C1193       C  0.93488159  0.12077061  0.77245943     0.65300
H1194       H  0.95542833  0.06756754  0.75099358     0.10800
C1195       C  0.08512596  0.11112521  0.79067947     0.63700
H1196       H  0.06515636  0.16397024  0.80870700     0.08200
F1197       F  0.99725361  0.29955766  0.78882410    -0.19300
F1198       F  0.03616684  0.28550182  0.76349113    -0.15500
F1199       F  0.06484112  0.32393669  0.79764882    -0.19000
F1200       F  0.01674943  0.13505929  0.84818044    -0.22400
F1201       F  0.95011086  0.10615631  0.83583295    -0.23900
F1202       F  0.97172837  0.14475452  0.87038742    -0.17900
F1203       F  0.11860981  0.14934791  0.78434179    -0.20400
F1204       F  0.08914969  0.08125133  0.77828129    -0.21500
F1205       F  0.08696811  0.10513166  0.81582702    -0.18700
F1206       F  0.90758995  0.09041614  0.75617168    -0.18800
F1207       F  0.94446917  0.15896386  0.76303925    -0.22600
F1208       F  0.91473614  0.11504148  0.79481256    -0.24200
C1209       C  0.14312279  0.00871085  0.78101015    -0.11000
C1210       C  0.12727686  0.98125099  0.80092281     0.11500
C1211       C  0.08419728  0.96040538  0.80591983    -0.02900
C1212       C  0.05822052  0.96705426  0.78997407    -0.05600
C1213       C  0.07410204  0.99546638  0.77026370    -0.16400
C1214       C  0.11779571  0.01754369  0.76609518     0.02600
C1215       C  0.15806363  0.98041750  0.81790046     0.12500
C1216       C  0.06598012  0.93232699  0.82829422     0.63100
H1217       H  0.02501410  0.95064353  0.79319180     0.12500
C1218       C  0.14058634  0.05269571  0.74787872     0.55300
H1219       H  0.17649882  0.02556799  0.77802117     0.08300
C1220       C  0.17808304  0.95768187  0.81237237    -0.05500
C1221       C  0.21160138  0.96381076  0.82727122    -0.06200
C1222       C  0.22610276  0.99246191  0.84688193    -0.15800
C1223       C  0.20562019  0.01450071  0.85282676    -0.01400
C1224       C  0.17187180  0.00825108  0.83800033    -0.08900
C1225       C  0.16483256  0.92783075  0.79059690     0.65300
H1226       H  0.22759813  0.94696862  0.82334524     0.10800
C1227       C  0.21889991  0.04380008  0.87487647     0.63700
H1228       H  0.15663389  0.02595714  0.84151945     0.08200
F1229       F  0.16101586  0.04188702  0.73079117    -0.19300
F1230       F  0.16970402  0.08781131  0.76051439    -0.15500
F1231       F  0.11497785  0.06285695  0.73539046    -0.19000
F1232       F  0.08266316  0.95500420  0.84980367    -0.22400
F1233       F  0.07491298  0.90064925  0.82733733    -0.23900
F1234       F  0.02321458  0.91457564  0.82937109    -0.17900
F1235       F  0.25842965  0.07705394  0.87106811    -0.20400
F1236       F  0.21879527  0.02300379  0.89609364    -0.21500
F1237       F  0.19240025  0.05916950  0.87862391    -0.18700
F1238       F  0.18743038  0.90768729  0.78931861    -0.18800
F1239       F  0.17078536  0.94930017  0.76872888    -0.22600
F1240       F  0.12342317  0.89794501  0.79288246    -0.24200
C1241       C  0.85339348  0.88891295  0.71291664    -0.11000
C1242       C  0.86028316  0.85865589  0.70234181     0.11500
C1243       C  0.90057311  0.86379858  0.70308239    -0.02900
C1244       C  0.93261578  0.89907885  0.71512845    -0.05600
C1245       C  0.92540894  0.92881620  0.72648192    -0.16400
C1246       C  0.88521104  0.92406004  0.72498747     0.02600
C1247       C  0.82413010  0.82189945  0.69084582     0.12500
C1248       C  0.90960010  0.83223506  0.69122788     0.63100
H1249       H  0.96368522  0.90369927  0.71590595     0.12500
C1250       C  0.87406075  0.95387906  0.73693977     0.55300
H1251       H  0.82232992  0.88435352  0.71202164     0.08300
C1252       C  0.79374241  0.78903723  0.70539508    -0.05500
C1253       C  0.75912926  0.75613045  0.69344126    -0.06200
C1254       C  0.75377841  0.75586039  0.66772500    -0.15800
C1255       C  0.78410814  0.78856201  0.65315496    -0.01400
C1256       C  0.81887482  0.82139064  0.66506170    -0.08900
C1257       C  0.79771050  0.78902072  0.73342258     0.65300
H1258       H  0.73558028  0.73052923  0.70411635     0.10800
C1259       C  0.77982143  0.78825973  0.62515911     0.63700
H1260       H  0.84212301  0.84718493  0.65437423     0.08200
F1261       F  0.86294646  0.94222255  0.76124764    -0.19300
F1262       F  0.84077993  0.95302376  0.72490594    -0.15500
F1263       F  0.90672316  0.99417655  0.73613136    -0.19000
F1264       F  0.90306866  0.83092730  0.66593528    -0.22400
F1265       F  0.88372315  0.79328553  0.70100231    -0.23900
F1266       F  0.95027865  0.84206312  0.69523703    -0.17900
F1267       F  0.74467857  0.78988969  0.61893277    -0.20400
F1268       F  0.77648174  0.75230552  0.61547383    -0.21500
F1269       F  0.81373840  0.82180762  0.61432892    -0.18700
F1270       F  0.76693579  0.75239840  0.74371893    -0.18800
F1271       F  0.79456206  0.82139211  0.74354787    -0.22600
F1272       F  0.83571125  0.79362843  0.73986394    -0.24200
C1273       C  0.02142915  0.13464473  0.69374904    -0.11000
C1274       C  0.98475026  0.11668422  0.67988952     0.11500
C1275       C  0.95775064  0.07329839  0.68020890    -0.02900
C1276       C  0.96721129  0.04958493  0.69625574    -0.05600
C1277       C  0.00278120  0.06786059  0.71158677    -0.16400
C1278       C  0.03163112  0.11118089  0.70924969     0.02600
C1279       C  0.97755101  0.14519039  0.66466144     0.12500
C1280       C  0.91929667  0.05231773  0.66384166     0.63100
H1281       H  0.94627254  0.01641089  0.69714740     0.12500
C1282       C  0.07423038  0.13492070  0.72123004     0.55300
H1283       H  0.04275599  0.16785190  0.69223318     0.08300
C1284       C  0.96640472  0.17260399  0.67575458    -0.05500
C1285       C  0.97084847  0.20631137  0.66188958    -0.06200
C1286       C  0.98572568  0.21282417  0.63757146    -0.15800
C1287       C  0.99297630  0.18331024  0.62571995    -0.01400
C1288       C  0.98969062  0.15017201  0.63975873    -0.08900
C1289       C  0.95132756  0.16705497  0.70234791     0.65300
H1290       H  0.96412570  0.22873866  0.67020633     0.10800
C1291       C  0.00416126  0.18700104  0.59852295     0.63700
H1292       H  0.99848476  0.12906838  0.63175895     0.08200
F1293       F  0.07549305  0.16457882  0.73722124    -0.19300
F1294       F  0.10384708  0.15480381  0.70302640    -0.15500
F1295       F  0.08495265  0.11006009  0.73406911    -0.19000
F1296       F  0.93076029  0.05892909  0.63919907    -0.22400
F1297       F  0.89380281  0.06839628  0.66876088    -0.23900
F1298       F  0.89664130  0.00983916  0.66767923    -0.17900
F1299       F  0.00595996  0.15284911  0.59010050    -0.20400
F1300       F  0.04246687  0.22197705  0.59485615    -0.21500
F1301       F  0.97455642  0.19002932  0.58464069    -0.18700
F1302       F  0.93804347  0.19452266  0.70852510    -0.18800
F1303       F  0.98311076  0.17381332  0.71837652    -0.22600
F1304       F  0.91834449  0.12719616  0.70561406    -0.24200
C1305       C  0.11221085  0.99337162  0.68377772    -0.11000
C1306       C  0.11884433  0.96275286  0.69397457     0.11500
C1307       C  0.09180927  0.93644404  0.71261488    -0.02900
C1308       C  0.06223368  0.94529985  0.72244743    -0.05600
C1309       C  0.05892515  0.97930564  0.71429630    -0.16400
C1310       C  0.08157828  0.00126761  0.69287886     0.02600
C1311       C  0.15622797  0.96219806  0.68531201     0.12500
C1312       C  0.09238893  0.89887977  0.72272720     0.63100
H1313       H  0.04270579  0.92654201  0.73757756     0.12500
C1314       C  0.07427058  0.03266343  0.67926641     0.55300
H1315       H  0.13210220  0.01167927  0.66867643     0.08300
C1316       C  0.15639589  0.94305956  0.66272891    -0.05500
C1317       C  0.19468494  0.95124307  0.65298655    -0.06200
C1318       C  0.23242384  0.97851104  0.66487942    -0.15800
C1319       C  0.23212024  0.99569262  0.68821406    -0.01400
C1320       C  0.19367904  0.98693711  0.69816421    -0.08900
C1321       C  0.11636630  0.91485888  0.64882352     0.65300
H1322       H  0.19557468  0.93759454  0.63542418     0.10800
C1323       C  0.27201863  0.02279721  0.70253848     0.63700
H1324       H  0.19270683  0.00069308  0.71561777     0.08200
F1325       F  0.03561154  0.01261802  0.66809155    -0.19300
F1326       F  0.10328907  0.05287516  0.66079384    -0.15500
F1327       F  0.07682523  0.06254784  0.69527245    -0.19000
F1328       F  0.09502557  0.90145933  0.74823598    -0.22400
F1329       F  0.12508701  0.89501763  0.71397599    -0.23900
F1330       F  0.05565547  0.86344722  0.71624832    -0.17900
F1331       F  0.29592615  0.05974590  0.69011929    -0.20400
F1332       F  0.29423206  0.00243635  0.70497758    -0.21500
F1333       F  0.26425379  0.03208783  0.72607007    -0.18700
F1334       F  0.12312311  0.89655470  0.62838556    -0.18800
F1335       F  0.09855196  0.93748370  0.64072735    -0.22600
F1336       F  0.08886552  0.88354082  0.66427076    -0.24200
loop_ 
_geom_bond_atom_site_label_1 
_geom_bond_atom_site_label_2 
_geom_bond_distance 
_geom_bond_site_symmetry_2 
_ccdc_geom_bond_type 
C1            H2   1.104       .  S
C1            C7   1.533   1_655  S
C1            C6   1.538       .  S
C1            C5   1.544   1_665  S
C3            H4   1.107       .  S
C3            C9   1.539   1_445  S
C3            C8   1.544       .  S
C3           C10   1.548       .  S
C5            C8   1.382       .  D
C5         C1277   1.493       .  S
C6            C9   1.377       .  D
C6         C1245   1.492       .  S
C7           C10   1.380   1_565  D
C7         C1309   1.501       .  S
C8         C1190   1.507       .  S
C9         C1149   1.494       .  S
C10        C1213   1.495   1_545  S
Zn11         O15   1.949   1_554  S
Zn11         O16   2.002       .  S
Zn11         O20   2.029       .  S
Zn11         O27   2.025   1_554  S
Zn12         O15   1.947       .  S
Zn12         O17   2.004   1_556  S
Zn12         O19   2.004   1_556  S
Zn12         O23   2.019       .  S
Zn13         O15   1.940   1_554  S
Zn13         O18   2.004       .  S
Zn13         O21   1.995       .  S
Zn13         O24   1.994   1_554  S
Zn14         O15   1.943       .  S
Zn14         O22   1.999       .  S
Zn14         O25   2.011       .  S
Zn14         O26   1.993       .  S
O16          C28   1.271       .  A
O17          C29   1.271       .  A
O18          C30   1.271       .  A
O19          C28   1.273       .  A
O20          C30   1.275       .  A
O21          C29   1.270       .  A
O22          C31   1.271       .  A
O23          C32   1.275       .  A
O24          C31   1.271       .  A
O25          C32   1.270       .  A
O26          C33   1.269       .  A
O27          C33   1.276       .  A
C28        C1126   1.478       .  S
C29         C989   1.467       .  S
C30        C1085   1.481       .  S
C31        C1021   1.463       .  S
C32         C966   1.495       .  S
C33        C1053   1.489       .  S
C34        C1158   1.474       .  S
C34          N35   1.361       .  A
C34          N39   1.363       .  A
N35          C36   1.358       .  A
C36        C1030   1.462       .  S
C36          N37   1.349       .  A
N37          C38   1.350       .  A
C38         C925   1.464       .  S
C38          N39   1.359       .  A
Zn40         O44   1.935       .  S
Zn40         O45   1.995       .  S
Zn40         O49   2.008   1_554  S
Zn40         O56   2.003       .  S
Zn41         O44   1.948       .  S
Zn41         O46   2.025   1_554  S
Zn41         O48   2.028       .  S
Zn41         O52   2.015       .  S
Zn42         O44   1.937   1_556  S
Zn42         O47   2.003       .  S
Zn42         O50   1.996       .  S
Zn42         O53   2.005       .  S
Zn43         O44   1.945       .  S
Zn43         O51   2.023   1_554  S
Zn43         O54   2.021       .  S
Zn43         O55   2.010       .  S
O45          C57   1.270       .  A
O46          C58   1.277       .  A
O47          C59   1.270       .  A
O48          C57   1.275       .  A
O49          C59   1.273       .  A
O50          C58   1.269       .  A
O51          C60   1.274       .  A
O52          C61   1.273       .  A
O53          C60   1.271       .  A
O54          C61   1.275       .  A
O55          C62   1.275       .  A
O56          C62   1.271       .  A
C57         C870   1.480       .  S
C58         C765   1.495       .  S
C59         C829   1.473       .  S
C60         C934   1.479       .  S
C61         C797   1.474       .  S
C62         C893   1.493       .  S
C63         C733   1.478       .  S
C63          N64   1.363       .  A
C63          N68   1.359       .  A
N64          C65   1.360       .  A
C65         C806   1.476       .  S
C65          N66   1.354       .  A
N66          C67   1.356       .  A
C67         C998   1.482       .  S
C67          N68   1.355       .  A
C69        C1222   1.469       .  S
C69          N70   1.362   1_565  A
C69          N74   1.356       .  A
N70          C71   1.360       .  A
C71         C957   1.473       .  S
C71          N72   1.353   1_545  A
N72          C73   1.354       .  A
C73         C838   1.479       .  S
C73          N74   1.352       .  A
C75         C701   1.479       .  S
C75          N76   1.363   1_655  A
C75          N80   1.361       .  A
N76          C77   1.359       .  A
C77         C861   1.478       .  S
C77          N78   1.353   1_455  A
N78          C79   1.352       .  A
C79        C1094   1.478       .  S
C79          N80   1.359       .  A
C81        C1181   1.478       .  S
C81          N82   1.362   1_455  A
C81          N86   1.364       .  A
N82          C83   1.360       .  A
C83        C1062   1.475       .  S
C83          N84   1.351   1_655  A
N84          C85   1.352       .  A
C85         C774   1.482       .  S
C85          N86   1.361       .  A
C87         C669   1.470       .  S
C87          N88   1.360       .  A
C87          N92   1.357   1_545  A
N88          C89   1.359       .  A
C89        C1117   1.468       .  S
C89          N90   1.351       .  A
N90          C91   1.351   1_545  A
C91         C902   1.458       .  S
C91          N92   1.352       .  A
Zn93         O97   1.939       .  S
Zn93         O98   2.001       .  S
Zn93        O102   1.999       .  S
Zn93        O109   2.022       .  S
Zn94         O97   1.941       .  S
Zn94         O99   2.008       .  S
Zn94        O101   1.988       .  S
Zn94        O105   2.009       .  S
Zn95         O97   1.945       .  S
Zn95        O100   2.019       .  S
Zn95        O103   2.006       .  S
Zn95        O106   2.007       .  S
Zn96         O97   1.938       .  S
Zn96        O104   1.992       .  S
Zn96        O107   2.010       .  S
Zn96        O108   2.003       .  S
O98         C110   1.274       .  A
O99         C111   1.271       .  A
O100        C112   1.273       .  A
O101        C110   1.269       .  A
O102        C112   1.272       .  A
O103        C111   1.272       .  A
O104        C113   1.269       .  A
O105        C114   1.271       .  A
O106        C113   1.275       .  A
O107        C114   1.271       .  A
O108        C115   1.270       .  A
O109        C115   1.274       .  A
C110        C486   1.471       .  S
C111        C541   1.481       .  S
C112        C646   1.478       .  S
C113        C573   1.491       .  S
C114        C518   1.467       .  S
C115        C605   1.487       .  S
C116       C1254   1.473       .  S
C116        N117   1.359       .  A
C116        N121   1.363       .  A
N117        C118   1.356       .  A
C118        C637   1.465       .  S
C118        N119   1.351       .  A
N119        C120   1.351       .  A
C120        C445   1.473       .  S
C120        N121   1.360       .  A
Zn122       O126   1.935       .  S
Zn122       O127   1.998       .  S
Zn122       O131   1.986       .  S
Zn122       O138   2.009       .  S
Zn123       O126   1.941       .  S
Zn123       O128   2.013       .  S
Zn123       O130   2.002       .  S
Zn123       O134   1.995       .  S
Zn124       O126   1.940       .  S
Zn124       O129   2.015       .  S
Zn124       O132   2.019       .  S
Zn124       O135   1.992       .  S
Zn125       O126   1.940       .  S
Zn125       O133   1.997       .  S
Zn125       O136   2.000       .  S
Zn125       O137   2.012       .  S
O127        C139   1.271       .  A
O128        C140   1.271       .  A
O129        C141   1.273       .  A
O130        C139   1.273       .  A
O131        C141   1.271       .  A
O132        C140   1.275       .  A
O133        C142   1.272       .  A
O134        C143   1.270       .  A
O135        C142   1.270       .  A
O136        C143   1.272       .  A
O137        C144   1.273       .  A
O138        C144   1.270       .  A
C139        C326   1.472       .  S
C140        C422   1.486       .  S
C141        C285   1.473       .  S
C142        C358   1.462       .  S
C143        C390   1.466       .  S
C144        C454   1.491       .  S
C145       C1318   1.475       .  S
C145        N146   1.364   1_565  A
C145        N150   1.356       .  A
N146        C147   1.361       .  A
C147        C550   1.467       .  S
C147        N148   1.352   1_545  A
N148        C149   1.350       .  A
C149        C349   1.466       .  S
C149        N150   1.353       .  A
C151       C1286   1.463       .  S
C151        N152   1.363   1_655  A
C151        N156   1.354       .  A
N152        C153   1.360       .  A
C153        C294   1.477       .  S
C153        N154   1.353       .  A
N154        C155   1.350   1_455  A
C155        C477   1.462       .  S
C155        N156   1.351       .  A
C157        C262   1.475   1_655  S
C157        N158   1.363       .  A
C157        N162   1.360   1_655  A
N158        C159   1.361       .  A
C159        C614   1.480       .  S
C159        N160   1.354       .  A
N160        C161   1.353   1_655  A
C161        C413   1.471       .  S
C161        N162   1.357       .  A
C163        C230   1.474       .  S
C163        N164   1.358       .  A
C163        N168   1.360       .  A
N164        C165   1.356       .  A
C165        C582   1.472       .  S
C165        N166   1.354       .  A
N166        C167   1.352       .  A
C167        C317   1.466       .  S
C167        N168   1.357       .  A
C169        C198   1.468   1_565  S
C169        N170   1.356       .  A
C169        N174   1.361   1_565  A
N170        C171   1.352       .  A
C171        C381   1.460       .  S
C171        N172   1.352       .  A
N172        C173   1.354   1_565  A
C173        C509   1.479       .  S
C173        N174   1.360       .  A
C175        H176   1.104   1_545  S
C175        C181   1.530   1_655  S
C175        C180   1.537   1_545  S
C175        C179   1.544       .  S
C177        H178   1.100       .  S
C177        C183   1.545   1_445  S
C177        C182   1.543   1_455  S
C177        C184   1.552       .  S
C179        C182   1.381       .  D
C179        C678   1.498       .  S
C180        C183   1.380       .  D
C180        C710   1.493       .  S
C181        C184   1.380       .  D
C181        C742   1.507       .  S
C182        C189   1.503       .  S
C183        C253   1.502       .  S
C184        C221   1.498       .  S
C185        C186   1.396       .  A
C185        C190   1.405       .  A
C185        H195   1.084       .  S
C186        C191   1.478       .  S
C186        C187   1.410   1_545  A
C187        C188   1.404       .  A
C187        C192   1.521       .  S
C188        C189   1.411   1_565  A
C188        H193   1.081       .  S
C189        C190   1.428       .  A
C190        C194   1.518       .  S
C191        C196   1.414   1_545  A
C191        C200   1.404       .  A
C192        F208   1.381       .  S
C192        F209   1.381       .  S
C192        F210   1.385       .  S
C194        F205   1.382       .  S
C194        F206   1.385       .  S
C194        F207   1.369   1_655  S
C196        C197   1.404       .  A
C196        C201   1.520       .  S
C197        C198   1.403   1_565  A
C197        H202   1.083       .  S
C198        C199   1.413       .  A
C199        C200   1.405       .  A
C199        C203   1.518       .  S
C200        H204   1.083       .  S
C201        F214   1.384       .  S
C201        F215   1.382       .  S
C201        F216   1.382       .  S
C203        F211   1.382       .  S
C203        F212   1.384       .  S
C203        F213   1.385       .  S
C217        C218   1.400       .  A
C217        C222   1.408       .  A
C217        H227   1.083       .  S
C218        C223   1.480       .  S
C218        C219   1.411       .  A
C219        C220   1.402       .  A
C219        C224   1.520       .  S
C220        C221   1.408       .  A
C220        H225   1.083       .  S
C221        C222   1.422       .  A
C222        C226   1.517       .  S
C223        C228   1.415       .  A
C223        C232   1.402       .  A
C224        F240   1.381       .  S
C224        F241   1.382       .  S
C224        F242   1.385       .  S
C226        F237   1.379       .  S
C226        F238   1.385       .  S
C226        F239   1.378       .  S
C228        C229   1.403       .  A
C228        C233   1.520       .  S
C229        C230   1.402       .  A
C229        H234   1.082       .  S
C230        C231   1.416       .  A
C231        C232   1.407       .  A
C231        C235   1.519       .  S
C232        H236   1.083       .  S
C233        F246   1.385       .  S
C233        F247   1.382       .  S
C233        F248   1.382       .  S
C235        F243   1.382       .  S
C235        F244   1.383       .  S
C235        F245   1.385       .  S
C249        C250   1.399   1_655  A
C249        C254   1.409       .  A
C249        H259   1.083       .  S
C250        C255   1.484       .  S
C250        C251   1.411       .  A
C251        C252   1.406       .  A
C251        C256   1.518       .  S
C252        C253   1.408   1_455  A
C252        H257   1.082       .  S
C253        C254   1.426       .  A
C254        C258   1.518       .  S
C255        C260   1.419       .  A
C255        C264   1.405   1_455  A
C256        F272   1.380       .  S
C256        F273   1.383       .  S
C256        F274   1.385       .  S
C258        F269   1.379       .  S
C258        F270   1.385       .  S
C258        F271   1.374       .  S
C260        C261   1.406       .  A
C260        C265   1.519       .  S
C261        C262   1.401       .  A
C261        H266   1.085       .  S
C262        C263   1.414   1_455  A
C263        C264   1.408       .  A
C263        C267   1.518       .  S
C264        H268   1.083       .  S
C265        F278   1.383       .  S
C265        F279   1.383       .  S
C265        F280   1.382       .  S
C267        F275   1.382       .  S
C267        F276   1.384   1_655  S
C267        F277   1.385       .  S
C281        C282   1.403       .  A
C281        C286   1.403       .  A
C281        H291   1.084       .  S
C282        C287   1.476       .  S
C282        C283   1.412       .  A
C283        C284   1.403       .  A
C283        C288   1.519       .  S
C284        C285   1.406       .  A
C284        H289   1.083       .  S
C285        C286   1.416       .  A
C286        C290   1.520       .  S
C287        C292   1.413       .  A
C287        C296   1.402       .  A
C288        F304   1.382       .  S
C288        F305   1.381       .  S
C288        F306   1.385       .  S
C290        F301   1.382       .  S
C290        F302   1.385       .  S
C290        F303   1.384       .  S
C292        C293   1.403       .  A
C292        C297   1.521       .  S
C293        C294   1.406       .  A
C293        H298   1.084       .  S
C294        C295   1.415       .  A
C295        C296   1.405       .  A
C295        C299   1.515       .  S
C296        H300   1.083       .  S
C297        F310   1.385       .  S
C297        F311   1.382       .  S
C297        F312   1.381       .  S
C299        F307   1.383       .  S
C299        F308   1.383       .  S
C299        F309   1.385       .  S
C313        C314   1.400       .  A
C313        C318   1.403       .  A
C313        H323   1.084       .  S
C314        C319   1.476       .  S
C314        C315   1.416       .  A
C315        C316   1.405       .  A
C315        C320   1.520       .  S
C316        C317   1.401       .  A
C316        H321   1.084       .  S
C317        C318   1.415       .  A
C318        C322   1.518       .  S
C319        C324   1.413       .  A
C319        C328   1.400       .  A
C320        F336   1.382       .  S
C320        F337   1.382       .  S
C320        F338   1.384       .  S
C322        F333   1.384       .  S
C322        F334   1.384       .  S
C322        F335   1.382       .  S
C324        C325   1.404       .  A
C324        C329   1.519       .  S
C325        C326   1.404       .  A
C325        H330   1.083       .  S
C326        C327   1.418       .  A
C327        C328   1.403       .  A
C327        C331   1.520       .  S
C328        H332   1.083       .  S
C329        F342   1.385       .  S
C329        F343   1.382       .  S
C329        F344   1.382       .  S
C331        F339   1.383       .  S
C331        F340   1.384       .  S
C331        F341   1.385       .  S
C345        C346   1.399       .  A
C345        C350   1.400       .  A
C345        H355   1.084       .  S
C346        C351   1.467       .  S
C346        C347   1.412       .  A
C347        C348   1.401       .  A
C347        C352   1.520       .  S
C348        C349   1.404       .  A
C348        H353   1.084       .  S
C349        C350   1.416       .  A
C350        C354   1.517       .  S
C351        C356   1.415       .  A
C351        C360   1.399       .  A
C352        F368   1.382       .  S
C352        F369   1.382       .  S
C352        F370   1.385       .  S
C354        F365   1.385       .  S
C354        F366   1.383       .  S
C354        F367   1.381       .  S
C356        C357   1.401       .  A
C356        C361   1.521       .  S
C357        C358   1.401       .  A
C357        H362   1.083       .  S
C358        C359   1.415       .  A
C359        C360   1.401       .  A
C359        C363   1.519       .  S
C360        H364   1.083       .  S
C361        F374   1.385       .  S
C361        F375   1.382       .  S
C361        F376   1.381       .  S
C363        F371   1.385       .  S
C363        F372   1.384       .  S
C363        F373   1.382       .  S
C377        C378   1.401       .  A
C377        C382   1.402       .  A
C377        H387   1.083       .  S
C378        C383   1.474       .  S
C378        C379   1.416       .  A
C379        C380   1.403       .  A
C379        C384   1.520       .  S
C380        C381   1.399       .  A
C380        H385   1.083       .  S
C381        C382   1.411       .  A
C382        C386   1.516       .  S
C383        C388   1.417       .  A
C383        C392   1.400       .  A
C384        F400   1.382       .  S
C384        F401   1.383       .  S
C384        F402   1.385       .  S
C386        F397   1.384       .  S
C386        F398   1.383       .  S
C386        F399   1.383       .  S
C388        C389   1.400       .  A
C388        C393   1.522       .  S
C389        C390   1.399       .  A
C389        H394   1.084       .  S
C390        C391   1.417       .  A
C391        C392   1.405       .  A
C391        C395   1.519       .  S
C392        H396   1.083       .  S
C393        F406   1.384       .  S
C393        F407   1.382       .  S
C393        F408   1.383       .  S
C395        F403   1.384       .  S
C395        F404   1.382       .  S
C395        F405   1.384       .  S
C409        C410   1.401       .  A
C409        C414   1.405       .  A
C409        H419   1.083       .  S
C410        C415   1.481       .  S
C410        C411   1.416       .  A
C411        C412   1.406       .  A
C411        C416   1.518       .  S
C412        C413   1.401       .  A
C412        H417   1.083       .  S
C413        C414   1.416       .  A
C414        C418   1.518       .  S
C415        C420   1.415       .  A
C415        C424   1.400       .  A
C416        F432   1.382       .  S
C416        F433   1.382       .  S
C416        F434   1.385       .  S
C418        F429   1.385       .  S
C418        F430   1.383       .  S
C418        F431   1.381       .  S
C420        C421   1.404       .  A
C420        C425   1.521       .  S
C421        C422   1.405       .  A
C421        H426   1.083       .  S
C422        C423   1.424       .  A
C423        C424   1.409       .  A
C423        C427   1.520       .  S
C424        H428   1.083       .  S
C425        F438   1.384       .  S
C425        F439   1.382       .  S
C425        F440   1.382       .  S
C427        F435   1.385       .  S
C427        F436   1.383       .  S
C427        F437   1.384       .  S
C441        C442   1.399       .  A
C441        C446   1.401       .  A
C441        H451   1.083       .  S
C442        C447   1.482       .  S
C442        C443   1.417       .  A
C443        C444   1.410       .  A
C443        C448   1.518       .  S
C444        C445   1.403       .  A
C444        H449   1.083       .  S
C445        C446   1.418       .  A
C446        C450   1.521       .  S
C447        C452   1.413       .  A
C447        C456   1.401       .  A
C448        F464   1.382       .  S
C448        F465   1.382       .  S
C448        F466   1.385       .  S
C450        F461   1.385       .  S
C450        F462   1.382       .  S
C450        F463   1.383       .  S
C452        C453   1.404       .  A
C452        C457   1.520       .  S
C453        C454   1.408       .  A
C453        H458   1.083       .  S
C454        C455   1.425       .  A
C455        C456   1.408       .  A
C455        C459   1.521       .  S
C456        H460   1.083       .  S
C457        F470   1.384       .  S
C457        F471   1.382       .  S
C457        F472   1.382       .  S
C459        F467   1.383       .  S
C459        F468   1.384       .  S
C459        F469   1.385       .  S
C473        C474   1.401       .  A
C473        C478   1.402       .  A
C473        H483   1.084       .  S
C474        C479   1.468       .  S
C474        C475   1.411       .  A
C475        C476   1.400       .  A
C475        C480   1.520       .  S
C476        C477   1.402       .  A
C476        H481   1.084       .  S
C477        C478   1.414       .  A
C478        C482   1.519       .  S
C479        C484   1.412       .  A
C479        C488   1.398       .  A
C480        F496   1.382       .  S
C480        F497   1.382       .  S
C480        F498   1.384       .  S
C482        F493   1.385       .  S
C482        F494   1.382       .  S
C482        F495   1.383       .  S
C484        C485   1.400       .  A
C484        C489   1.521       .  S
C485        C486   1.404       .  A
C485        H490   1.083       .  S
C486        C487   1.420       .  A
C487        C488   1.402       .  A
C487        C491   1.519       .  S
C488        H492   1.084       .  S
C489        F502   1.385       .  S
C489        F503   1.382       .  S
C489        F504   1.381       .  S
C491        F499   1.383       .  S
C491        F500   1.383       .  S
C491        F501   1.385       .  S
C505        C506   1.398       .  A
C505        C510   1.403       .  A
C505        H515   1.084       .  S
C506        C511   1.480       .  S
C506        C507   1.414       .  A
C507        C508   1.408       .  A
C507        C512   1.518       .  S
C508        C509   1.405       .  A
C508        H513   1.083       .  S
C509        C510   1.421       .  A
C510        C514   1.521       .  S
C511        C516   1.418       .  A
C511        C520   1.402       .  A
C512        F528   1.383       .  S
C512        F529   1.382       .  S
C512        F530   1.384       .  S
C514        F525   1.383   1_545  S
C514        F526   1.385       .  S
C514        F527   1.384       .  S
C516        C517   1.405       .  A
C516        C521   1.520       .  S
C517        C518   1.399       .  A
C517        H522   1.083       .  S
C518        C519   1.414       .  A
C519        C520   1.406       .  A
C519        C523   1.518       .  S
C520        H524   1.083       .  S
C521        F534   1.384       .  S
C521        F535   1.382       .  S
C521        F536   1.382       .  S
C523        F531   1.385       .  S
C523        F532   1.383       .  S
C523        F533   1.383       .  S
C537        C538   1.401       .  A
C537        C542   1.405       .  A
C537        H547   1.083       .  S
C538        C543   1.480       .  S
C538        C539   1.412       .  A
C539        C540   1.405       .  A
C539        C544   1.519       .  S
C540        C541   1.407       .  A
C540        H545   1.083       .  S
C541        C542   1.420       .  A
C542        C546   1.521       .  S
C543        C548   1.416       .  A
C543        C552   1.402       .  A
C544        F560   1.382       .  S
C544        F561   1.382       .  S
C544        F562   1.384       .  S
C546        F557   1.385       .  S
C546        F558   1.382       .  S
C546        F559   1.384       .  S
C548        C549   1.406       .  A
C548        C553   1.520       .  S
C549        C550   1.402       .  A
C549        H554   1.084       .  S
C550        C551   1.412       .  A
C551        C552   1.405       .  A
C551        C555   1.517       .  S
C552        H556   1.083       .  S
C553        F566   1.384       .  S
C553        F567   1.382       .  S
C553        F568   1.382       .  S
C555        F563   1.382       .  S
C555        F564   1.382       .  S
C555        F565   1.385       .  S
C569        C570   1.396       .  A
C569        C574   1.406       .  A
C569        H579   1.083       .  S
C570        C575   1.474       .  S
C570        C571   1.412       .  A
C571        C572   1.401       .  A
C571        C576   1.522       .  S
C572        C573   1.409       .  A
C572        H577   1.082       .  S
C573        C574   1.430       .  A
C574        C578   1.522       .  S
C575        C580   1.412       .  A
C575        C584   1.399       .  A
C576        F592   1.382       .  S
C576        F593   1.382       .  S
C576        F594   1.385       .  S
C578        F589   1.383       .  S
C578        F590   1.385       .  S
C578        F591   1.384       .  S
C580        C581   1.402       .  A
C580        C585   1.520       .  S
C581        C582   1.404       .  A
C581        H586   1.083       .  S
C582        C583   1.419       .  A
C583        C584   1.404       .  A
C583        C587   1.519       .  S
C584        H588   1.083       .  S
C585        F598   1.384       .  S
C585        F599   1.383       .  S
C585        F600   1.382       .  S
C587        F595   1.383       .  S
C587        F596   1.383       .  S
C587        F597   1.385       .  S
C601        C602   1.399       .  A
C601        C606   1.407       .  A
C601        H611   1.083       .  S
C602        C607   1.482       .  S
C602        C603   1.415       .  A
C603        C604   1.406       .  A
C603        C608   1.520       .  S
C604        C605   1.406       .  A
C604        H609   1.083       .  S
C605        C606   1.424       .  A
C606        C610   1.521       .  S
C607        C612   1.414       .  A
C607        C616   1.402       .  A
C608        F624   1.382       .  S
C608        F625   1.382       .  S
C608        F626   1.385       .  S
C610        F621   1.383       .  S
C610        F622   1.385       .  S
C610        F623   1.384       .  S
C612        C613   1.405       .  A
C612        C617   1.520       .  S
C613        C614   1.404       .  A
C613        H618   1.083       .  S
C614        C615   1.418       .  A
C615        C616   1.409       .  A
C615        C619   1.517       .  S
C616        H620   1.083       .  S
C617        F630   1.385       .  S
C617        F631   1.382       .  S
C617        F632   1.382       .  S
C619        F627   1.385       .  S
C619        F628   1.383       .  S
C619        F629   1.383       .  S
C633        C634   1.402       .  A
C633        C638   1.405       .  A
C633        H643   1.083       .  S
C634        C639   1.477       .  S
C634        C635   1.416       .  A
C635        C636   1.403       .  A
C635        C640   1.521       .  S
C636        C637   1.400       .  A
C636        H641   1.084       .  S
C637        C638   1.413       .  A
C638        C642   1.517       .  S
C639        C644   1.411       .  A
C639        C648   1.401       .  A
C640        F656   1.382       .  S
C640        F657   1.382       .  S
C640        F658   1.385       .  S
C642        F653   1.385       .  S
C642        F654   1.382       .  S
C642        F655   1.383       .  S
C644        C645   1.404       .  A
C644        C649   1.519       .  S
C645        C646   1.407       .  A
C645        H650   1.083       .  S
C646        C647   1.418       .  A
C647        C648   1.405       .  A
C647        C651   1.519       .  S
C648        H652   1.083       .  S
C649        F662   1.384       .  S
C649        F663   1.382       .  S
C649        F664   1.382       .  S
C651        F659   1.383       .  S
C651        F660   1.383       .  S
C651        F661   1.385       .  S
C665        C666   1.403       .  A
C665        C670   1.408       .  A
C665        H675   1.083       .  S
C666        C671   1.477       .  S
C666        C667   1.417   1_545  A
C667        C668   1.399       .  A
C667        C672   1.516       .  S
C668        C669   1.398   1_565  A
C668        H673   1.085       .  S
C669        C670   1.417       .  A
C670        C674   1.518       .  S
C671        C676   1.411   1_545  A
C671        C680   1.395       .  A
C672        F688   1.383       .  S
C672        F689   1.378       .  S
C672        F690   1.383       .  S
C674        F685   1.385       .  S
C674        F686   1.382       .  S
C674        F687   1.384       .  S
C676        C677   1.406       .  A
C676        C681   1.517       .  S
C677        C678   1.408   1_565  A
C677        H682   1.082       .  S
C678        C679   1.430       .  A
C679        C680   1.401       .  A
C679        C683   1.518       .  S
C680        H684   1.085       .  S
C681        F694   1.385       .  S
C681        F695   1.383       .  S
C681        F696   1.383       .  S
C683        F691   1.385       .  S
C683        F692   1.372       .  S
C683        F693   1.383       .  S
C697        C698   1.403       .  A
C697        C702   1.411       .  A
C697        H707   1.083       .  S
C698        C703   1.486       .  S
C698        C699   1.415   1_655  A
C699        C700   1.404       .  A
C699        C704   1.516       .  S
C700        C701   1.401   1_455  A
C700        H705   1.083       .  S
C701        C702   1.419       .  A
C702        C706   1.518       .  S
C703        C708   1.415   1_655  A
C703        C712   1.401       .  A
C704        F720   1.383   1_455  S
C704        F721   1.381       .  S
C704        F722   1.384       .  S
C706        F717   1.385       .  S
C706        F718   1.382       .  S
C706        F719   1.383       .  S
C708        C709   1.407       .  A
C708        C713   1.519       .  S
C709        C710   1.405   1_455  A
C709        H714   1.083       .  S
C710        C711   1.419       .  A
C711        C712   1.406       .  A
C711        C715   1.514       .  S
C712        H716   1.084       .  S
C713        F726   1.385       .  S
C713        F727   1.382       .  S
C713        F728   1.382       .  S
C715        F723   1.384       .  S
C715        F724   1.379       .  S
C715        F725   1.382       .  S
C729        C730   1.402       .  A
C729        C734   1.406       .  A
C729        H739   1.082       .  S
C730        C735   1.481       .  S
C730        C731   1.415       .  A
C731        C732   1.407       .  A
C731        C736   1.520       .  S
C732        C733   1.405       .  A
C732        H737   1.083       .  S
C733        C734   1.416       .  A
C734        C738   1.518       .  S
C735        C740   1.411       .  A
C735        C744   1.396       .  A
C736        F752   1.382       .  S
C736        F753   1.381       .  S
C736        F754   1.384       .  S
C738        F749   1.384       .  S
C738        F750   1.383       .  S
C738        F751   1.383       .  S
C740        C741   1.407       .  A
C740        C745   1.519       .  S
C741        C742   1.410       .  A
C741        H746   1.078       .  S
C742        C743   1.427       .  A
C743        C744   1.405       .  A
C743        C747   1.516       .  S
C744        H748   1.082       .  S
C745        F758   1.385       .  S
C745        F759   1.382       .  S
C745        F760   1.381       .  S
C747        F755   1.385       .  S
C747        F756   1.370       .  S
C747        F757   1.379   1_455  S
C761        C762   1.398       .  A
C761        C766   1.407       .  A
C761        H771   1.083       .  S
C762        C767   1.484       .  S
C762        C763   1.414       .  A
C763        C764   1.404       .  A
C763        C768   1.521       .  S
C764        C765   1.409       .  A
C764        H769   1.082       .  S
C765        C766   1.429       .  A
C766        C770   1.523       .  S
C767        C772   1.415       .  A
C767        C776   1.403       .  A
C768        F784   1.381       .  S
C768        F785   1.383       .  S
C768        F786   1.385       .  S
C770        F781   1.384       .  S
C770        F782   1.385       .  S
C770        F783   1.383       .  S
C772        C773   1.403       .  A
C772        C777   1.522       .  S
C773        C774   1.406       .  A
C773        H778   1.083       .  S
C774        C775   1.418       .  A
C775        C776   1.409       .  A
C775        C779   1.518       .  S
C776        H780   1.083       .  S
C777        F790   1.385       .  S
C777        F791   1.382       .  S
C777        F792   1.383       .  S
C779        F787   1.385       .  S
C779        F788   1.382       .  S
C779        F789   1.384       .  S
C793        C794   1.403       .  A
C793        C798   1.405       .  A
C793        H803   1.083       .  S
C794        C799   1.484       .  S
C794        C795   1.416       .  A
C795        C796   1.409       .  A
C795        C800   1.519       .  S
C796        C797   1.403       .  A
C796        H801   1.083       .  S
C797        C798   1.414       .  A
C798        C802   1.519       .  S
C799        C804   1.417       .  A
C799        C808   1.400       .  A
C800        F816   1.382       .  S
C800        F817   1.382       .  S
C800        F818   1.384       .  S
C802        F813   1.384       .  S
C802        F814   1.383       .  S
C802        F815   1.384       .  S
C804        C805   1.409       .  A
C804        C809   1.519       .  S
C805        C806   1.403       .  A
C805        H810   1.083       .  S
C806        C807   1.417       .  A
C807        C808   1.404       .  A
C807        C811   1.517       .  S
C808        H812   1.083       .  S
C809        F822   1.385       .  S
C809        F823   1.382       .  S
C809        F824   1.382       .  S
C811        F819   1.380       .  S
C811        F820   1.383       .  S
C811        F821   1.385       .  S
C825        C826   1.399       .  A
C825        C830   1.403       .  A
C825        H835   1.083       .  S
C826        C831   1.472       .  S
C826        C827   1.411       .  A
C827        C828   1.404       .  A
C827        C832   1.519       .  S
C828        C829   1.405       .  A
C828        H833   1.083       .  S
C829        C830   1.417       .  A
C830        C834   1.517       .  S
C831        C836   1.413       .  A
C831        C840   1.400       .  A
C832        F848   1.383       .  S
C832        F849   1.382       .  S
C832        F850   1.385       .  S
C834        F845   1.382       .  S
C834        F846   1.385       .  S
C834        F847   1.382       .  S
C836        C837   1.399       .  A
C836        C841   1.522       .  S
C837        C838   1.405       .  A
C837        H842   1.083       .  S
C838        C839   1.423       .  A
C839        C840   1.407       .  A
C839        C843   1.521       .  S
C840        H844   1.083       .  S
C841        F854   1.385       .  S
C841        F855   1.382       .  S
C841        F856   1.381       .  S
C843        F851   1.384       .  S
C843        F852   1.383       .  S
C843        F853   1.385       .  S
C857        C858   1.402       .  A
C857        C862   1.406       .  A
C857        H867   1.083       .  S
C858        C863   1.480       .  S
C858        C859   1.412       .  A
C859        C860   1.406       .  A
C859        C864   1.519       .  S
C860        C861   1.406       .  A
C860        H865   1.083       .  S
C861        C862   1.416       .  A
C862        C866   1.517       .  S
C863        C868   1.417       .  A
C863        C872   1.400       .  A
C864        F880   1.383       .  S
C864        F881   1.381       .  S
C864        F882   1.385       .  S
C866        F877   1.383       .  S
C866        F878   1.385       .  S
C866        F879   1.383       .  S
C868        C869   1.405       .  A
C868        C873   1.522       .  S
C869        C870   1.403       .  A
C869        H874   1.083       .  S
C870        C871   1.421       .  A
C871        C872   1.407       .  A
C871        C875   1.520       .  S
C872        H876   1.083       .  S
C873        F886   1.385       .  S
C873        F887   1.382       .  S
C873        F888   1.381       .  S
C875        F883   1.385       .  S
C875        F884   1.383       .  S
C875        F885   1.384       .  S
C889        C890   1.397       .  A
C889        C894   1.404       .  A
C889        H899   1.083       .  S
C890        C895   1.474       .  S
C890        C891   1.408       .  A
C891        C892   1.404       .  A
C891        C896   1.520       .  S
C892        C893   1.412       .  A
C892        H897   1.082       .  S
C893        C894   1.428       .  A
C894        C898   1.523       .  S
C895        C900   1.416       .  A
C895        C904   1.404       .  A
C896        F912   1.382       .  S
C896        F913   1.382       .  S
C896        F914   1.384       .  S
C898        F909   1.385       .  S
C898        F910   1.383       .  S
C898        F911   1.384       .  S
C900        C901   1.398       .  A
C900        C905   1.521       .  S
C901        C902   1.398       .  A
C901        H906   1.084       .  S
C902        C903   1.410       .  A
C903        C904   1.406       .  A
C903        C907   1.515       .  S
C904        H908   1.083       .  S
C905        F918   1.385       .  S
C905        F919   1.382       .  S
C905        F920   1.381       .  S
C907        F915   1.383       .  S
C907        F916   1.383       .  S
C907        F917   1.385       .  S
C921        C922   1.402       .  A
C921        C926   1.404       .  A
C921        H931   1.084       .  S
C922        C927   1.479       .  S
C922        C923   1.416       .  A
C923        C924   1.406       .  A
C923        C928   1.519       .  S
C924        C925   1.401       .  A
C924        H929   1.084       .  S
C925        C926   1.412       .  A
C926        C930   1.517       .  S
C927        C932   1.417       .  A
C927        C936   1.398       .  A
C928        F944   1.382       .  S
C928        F945   1.382       .  S
C928        F946   1.384       .  S
C930        F941   1.384       .  S
C930        F942   1.383       .  S
C930        F943   1.383       .  S
C932        C933   1.406       .  A
C932        C937   1.521       .  S
C933        C934   1.403       .  A
C933        H938   1.083       .  S
C934        C935   1.421       .  A
C935        C936   1.405       .  A
C935        C939   1.518       .  S
C936        H940   1.083       .  S
C937        F950   1.385       .  S
C937        F951   1.382       .  S
C937        F952   1.382       .  S
C939        F947   1.385       .  S
C939        F948   1.384       .  S
C939        F949   1.381       .  S
C953        C954   1.401       .  A
C953        C958   1.405       .  A
C953        H963   1.083       .  S
C954        C959   1.483       .  S
C954        C955   1.417       .  A
C955        C956   1.406       .  A
C955        C960   1.519       .  S
C956        C957   1.400       .  A
C956        H961   1.083       .  S
C957        C958   1.418       .  A
C958        C962   1.519       .  S
C959        C964   1.414       .  A
C959        C968   1.398       .  A
C960        F976   1.382       .  S
C960        F977   1.383       .  S
C960        F978   1.384       .  S
C962        F973   1.382       .  S
C962        F974   1.384       .  S
C962        F975   1.384       .  S
C964        C965   1.404       .  A
C964        C969   1.521       .  S
C965        C966   1.408       .  A
C965        H970   1.082       .  S
C966        C967   1.428       .  A
C967        C968   1.410       .  A
C967        C971   1.521       .  S
C968        H972   1.083       .  S
C969        F982   1.384       .  S
C969        F983   1.382       .  S
C969        F984   1.383       .  S
C971        F979   1.383       .  S
C971        F980   1.384       .  S
C971        F981   1.385       .  S
C985        C986   1.401       .  A
C985        C990   1.403       .  A
C985        H995   1.083       .  S
C986        C991   1.477       .  S
C986        C987   1.415       .  A
C987        C988   1.404       .  A
C987        C992   1.519       .  S
C988        C989   1.402       .  A
C988        H993   1.083       .  S
C989        C990   1.415       .  A
C990        C994   1.520       .  S
C991        C996   1.413       .  A
C991       C1000   1.401       .  A
C992       F1008   1.382       .  S
C992       F1009   1.383       .  S
C992       F1010   1.385       .  S
C994       F1005   1.385       .  S
C994       F1006   1.383   1_554  S
C994       F1007   1.383       .  S
C996        C997   1.401       .  A
C996       C1001   1.522       .  S
C997        C998   1.405       .  A
C997       H1002   1.077       .  S
C998        C999   1.421       .  A
C999       C1000   1.408       .  A
C999       C1003   1.519       .  S
C1000      H1004   1.082       .  S
C1001      F1014   1.385       .  S
C1001      F1015   1.382       .  S
C1001      F1016   1.382       .  S
C1003      F1011   1.383       .  S
C1003      F1012   1.383       .  S
C1003      F1013   1.385       .  S
C1017      C1018   1.400       .  A
C1017      C1022   1.401       .  A
C1017      H1027   1.083       .  S
C1018      C1023   1.473       .  S
C1018      C1019   1.415       .  A
C1019      C1020   1.403       .  A
C1019      C1024   1.519       .  S
C1020      C1021   1.401       .  A
C1020      H1025   1.084       .  S
C1021      C1022   1.414       .  A
C1022      C1026   1.519       .  S
C1023      C1028   1.416       .  A
C1023      C1032   1.400       .  A
C1024      F1040   1.382       .  S
C1024      F1041   1.382       .  S
C1024      F1042   1.385       .  S
C1026      F1037   1.385       .  S
C1026      F1038   1.382       .  S
C1026      F1039   1.383       .  S
C1028      C1029   1.403       .  A
C1028      C1033   1.521       .  S
C1029      C1030   1.399       .  A
C1029      H1034   1.084       .  S
C1030      C1031   1.413       .  A
C1031      C1032   1.403       .  A
C1031      C1035   1.516       .  S
C1032      H1036   1.083       .  S
C1033      F1046   1.384       .  S
C1033      F1047   1.382       .  S
C1033      F1048   1.382       .  S
C1035      F1043   1.385       .  S
C1035      F1044   1.382       .  S
C1035      F1045   1.383       .  S
C1049      C1050   1.398       .  A
C1049      C1054   1.407       .  A
C1049      H1059   1.083       .  S
C1050      C1055   1.481       .  S
C1050      C1051   1.414       .  A
C1051      C1052   1.404       .  A
C1051      C1056   1.520       .  S
C1052      C1053   1.406       .  A
C1052      H1057   1.082       .  S
C1053      C1054   1.427       .  A
C1054      C1058   1.522       .  S
C1055      C1060   1.416       .  A
C1055      C1064   1.398       .  A
C1056      F1072   1.382       .  S
C1056      F1073   1.382       .  S
C1056      F1074   1.385       .  S
C1058      F1069   1.384       .  S
C1058      F1070   1.385       .  S
C1058      F1071   1.383       .  S
C1060      C1061   1.407       .  A
C1060      C1065   1.519       .  S
C1061      C1062   1.403       .  A
C1061      H1066   1.083       .  S
C1062      C1063   1.421       .  A
C1063      C1064   1.401       .  A
C1063      C1067   1.519       .  S
C1064      H1068   1.085       .  S
C1065      F1078   1.384       .  S
C1065      F1079   1.382       .  S
C1065      F1080   1.383       .  S
C1067      F1075   1.383       .  S
C1067      F1076   1.383       .  S
C1067      F1077   1.384       .  S
C1081      C1082   1.399       .  A
C1081      C1086   1.407       .  A
C1081      H1091   1.083       .  S
C1082      C1087   1.480       .  S
C1082      C1083   1.416       .  A
C1083      C1084   1.405       .  A
C1083      C1088   1.520       .  S
C1084      C1085   1.403       .  A
C1084      H1089   1.083       .  S
C1085      C1086   1.422       .  A
C1086      C1090   1.519       .  S
C1087      C1092   1.415       .  A
C1087      C1096   1.399       .  A
C1088      F1104   1.382       .  S
C1088      F1105   1.382       .  S
C1088      F1106   1.384       .  S
C1090      F1101   1.382       .  S
C1090      F1102   1.385       .  S
C1090      F1103   1.383       .  S
C1092      C1093   1.406       .  A
C1092      C1097   1.518       .  S
C1093      C1094   1.403       .  A
C1093      H1098   1.082       .  S
C1094      C1095   1.421       .  A
C1095      C1096   1.404       .  A
C1095      C1099   1.519       .  S
C1096      H1100   1.084       .  S
C1097      F1110   1.385       .  S
C1097      F1111   1.382       .  S
C1097      F1112   1.382       .  S
C1099      F1107   1.384       .  S
C1099      F1108   1.382       .  S
C1099      F1109   1.385       .  S
C1113      C1114   1.400       .  A
C1113      C1118   1.404       .  A
C1113      H1123   1.083       .  S
C1114      C1119   1.475       .  S
C1114      C1115   1.415       .  A
C1115      C1116   1.403       .  A
C1115      C1120   1.520       .  S
C1116      C1117   1.401       .  A
C1116      H1121   1.083       .  S
C1117      C1118   1.416       .  A
C1118      C1122   1.518       .  S
C1119      C1124   1.414       .  A
C1119      C1128   1.398       .  A
C1120      F1136   1.382       .  S
C1120      F1137   1.383       .  S
C1120      F1138   1.384       .  S
C1122      F1133   1.382       .  S
C1122      F1134   1.385       .  S
C1122      F1135   1.383       .  S
C1124      C1125   1.403       .  A
C1124      C1129   1.520       .  S
C1125      C1126   1.405       .  A
C1125      H1130   1.083       .  S
C1126      C1127   1.422       .  A
C1127      C1128   1.404       .  A
C1127      C1131   1.521       .  S
C1128      H1132   1.083       .  S
C1129      F1142   1.385       .  S
C1129      F1143   1.382       .  S
C1129      F1144   1.382       .  S
C1131      F1139   1.385       .  S
C1131      F1140   1.383       .  S
C1131      F1141   1.382       .  S
C1145      C1146   1.399       .  A
C1145      C1150   1.406       .  A
C1145      H1155   1.084       .  S
C1146      C1151   1.485       .  S
C1146      C1147   1.416       .  A
C1147      C1148   1.406       .  A
C1147      C1152   1.520       .  S
C1148      C1149   1.406       .  A
C1148      H1153   1.084       .  S
C1149      C1150   1.423       .  A
C1150      C1154   1.519       .  S
C1151      C1156   1.418       .  A
C1151      C1160   1.402       .  A
C1152      F1168   1.381       .  S
C1152      F1169   1.382       .  S
C1152      F1170   1.385       .  S
C1154      F1165   1.379   1_565  S
C1154      F1166   1.385       .  S
C1154      F1167   1.375   1_565  S
C1156      C1157   1.411       .  A
C1156      C1161   1.520       .  S
C1157      C1158   1.403       .  A
C1157      H1162   1.083       .  S
C1158      C1159   1.413       .  A
C1159      C1160   1.403       .  A
C1159      C1163   1.517       .  S
C1160      H1164   1.084       .  S
C1161      F1174   1.385       .  S
C1161      F1175   1.382       .  S
C1161      F1176   1.382       .  S
C1163      F1171   1.384       .  S
C1163      F1172   1.382       .  S
C1163      F1173   1.382       .  S
C1177      C1178   1.404       .  A
C1177      C1182   1.409       .  A
C1177      H1187   1.083       .  S
C1178      C1183   1.490       .  S
C1178      C1179   1.418   1_455  A
C1179      C1180   1.410       .  A
C1179      C1184   1.520       .  S
C1180      C1181   1.402   1_655  A
C1180      H1185   1.083       .  S
C1181      C1182   1.414       .  A
C1182      C1186   1.517       .  S
C1183      C1188   1.413   1_455  A
C1183      C1192   1.399       .  A
C1184      F1200   1.382   1_655  S
C1184      F1201   1.382       .  S
C1184      F1202   1.384       .  S
C1186      F1197   1.383   1_455  S
C1186      F1198   1.385       .  S
C1186      F1199   1.383       .  S
C1188      C1189   1.409       .  A
C1188      C1193   1.520       .  S
C1189      C1190   1.410   1_655  A
C1189      H1194   1.079       .  S
C1190      C1191   1.427       .  A
C1191      C1192   1.407       .  A
C1191      C1195   1.517       .  S
C1192      H1196   1.085       .  S
C1193      F1206   1.385       .  S
C1193      F1207   1.381       .  S
C1193      F1208   1.381       .  S
C1195      F1203   1.384       .  S
C1195      F1204   1.370       .  S
C1195      F1205   1.383       .  S
C1209      C1210   1.397   1_545  A
C1209      C1214   1.400       .  A
C1209      H1219   1.087       .  S
C1210      C1215   1.479       .  S
C1210      C1211   1.414       .  A
C1211      C1212   1.407       .  A
C1211      C1216   1.519       .  S
C1212      C1213   1.407       .  A
C1212      H1217   1.084       .  S
C1213      C1214   1.425   1_565  A
C1214      C1218   1.514       .  S
C1215      C1220   1.416       .  A
C1215      C1224   1.404   1_565  A
C1216      F1232   1.382       .  S
C1216      F1233   1.381       .  S
C1216      F1234   1.385       .  S
C1218      F1229   1.380       .  S
C1218      F1230   1.384       .  S
C1218      F1231   1.368       .  S
C1220      C1221   1.402       .  A
C1220      C1225   1.516       .  S
C1221      C1222   1.401       .  A
C1221      H1226   1.083       .  S
C1222      C1223   1.413   1_565  A
C1223      C1224   1.405       .  A
C1223      C1227   1.516       .  S
C1224      H1228   1.083       .  S
C1225      F1238   1.385       .  S
C1225      F1239   1.382       .  S
C1225      F1240   1.380       .  S
C1227      F1235   1.382       .  S
C1227      F1236   1.383       .  S
C1227      F1237   1.385       .  S
C1241      C1242   1.398       .  A
C1241      C1246   1.404       .  A
C1241      H1251   1.083       .  S
C1242      C1247   1.486       .  S
C1242      C1243   1.415       .  A
C1243      C1244   1.409       .  A
C1243      C1248   1.518       .  S
C1244      C1245   1.406       .  A
C1244      H1249   1.082       .  S
C1245      C1246   1.419       .  A
C1246      C1250   1.513       .  S
C1247      C1252   1.418       .  A
C1247      C1256   1.403       .  A
C1248      F1264   1.382       .  S
C1248      F1265   1.382       .  S
C1248      F1266   1.385       .  S
C1250      F1261   1.380       .  S
C1250      F1262   1.385       .  S
C1250      F1263   1.377       .  S
C1252      C1253   1.407       .  A
C1252      C1257   1.519       .  S
C1253      C1254   1.401       .  A
C1253      H1258   1.083       .  S
C1254      C1255   1.415       .  A
C1255      C1256   1.408       .  A
C1255      C1259   1.518       .  S
C1256      H1260   1.083       .  S
C1257      F1270   1.384       .  S
C1257      F1271   1.382       .  S
C1257      F1272   1.382       .  S
C1259      F1267   1.382       .  S
C1259      F1268   1.384       .  S
C1259      F1269   1.384       .  S
C1273      C1274   1.395   1_455  A
C1273      C1278   1.396       .  A
C1273      H1283   1.086       .  S
C1274      C1279   1.473       .  S
C1274      C1275   1.410       .  A
C1275      C1276   1.405       .  A
C1275      C1280   1.518       .  S
C1276      C1277   1.409   1_655  A
C1276      H1281   1.081       .  S
C1277      C1278   1.425       .  A
C1278      C1282   1.515       .  S
C1279      C1284   1.415       .  A
C1279      C1288   1.402       .  A
C1280      F1296   1.382       .  S
C1280      F1297   1.382       .  S
C1280      F1298   1.385       .  S
C1282      F1293   1.383       .  S
C1282      F1294   1.384       .  S
C1282      F1295   1.369       .  S
C1284      C1285   1.401       .  A
C1284      C1289   1.519       .  S
C1285      C1286   1.399       .  A
C1285      H1290   1.084       .  S
C1286      C1287   1.411       .  A
C1287      C1288   1.403       .  A
C1287      C1291   1.514   1_655  S
C1288      H1292   1.083       .  S
C1289      F1302   1.385       .  S
C1289      F1303   1.381       .  S
C1289      F1304   1.382       .  S
C1291      F1299   1.385       .  S
C1291      F1300   1.379       .  S
C1291      F1301   1.383   1_455  S
C1305      C1306   1.398       .  A
C1305      C1310   1.405   1_565  A
C1305      H1315   1.084   1_565  S
C1306      C1311   1.481       .  S
C1306      C1307   1.415       .  A
C1307      C1308   1.406       .  A
C1307      C1312   1.515       .  S
C1308      C1309   1.406       .  A
C1308      H1313   1.085       .  S
C1309      C1310   1.425   1_565  A
C1310      C1314   1.520       .  S
C1311      C1316   1.412       .  A
C1311      C1320   1.405       .  A
C1312      F1328   1.379       .  S
C1312      F1329   1.382       .  S
C1312      F1330   1.383       .  S
C1314      F1325   1.380       .  S
C1314      F1326   1.385       .  S
C1314      F1327   1.373       .  S
C1316      C1317   1.404       .  A
C1316      C1321   1.517       .  S
C1317      C1318   1.405       .  A
C1317      H1322   1.083       .  S
C1318      C1319   1.414       .  A
C1319      C1320   1.408       .  A
C1319      C1323   1.518   1_565  S
C1320      H1324   1.081   1_565  S
C1321      F1334   1.385       .  S
C1321      F1335   1.382       .  S
C1321      F1336   1.382       .  S
C1323      F1331   1.382       .  S
C1323      F1332   1.384       .  S
C1323      F1333   1.385       .  S
