geometry optimzed in LAMMPS
_audit_creation_date              2020-11-30 
_audit_creation_method            'lammps2cif' 
_symmetry_space_group_name_H-M    'P1' 
_symmetry_Int_Tables_number       1 
_symmetry_cell_setting            triclinic 
loop_ 
_symmetry_equiv_pos_as_xyz 
  x,y,z 
_cell_length_a                    38.67769271 
_cell_length_b                    38.5499506196539 
_cell_length_c                    50.37134129908901 
_cell_angle_alpha                 90.90682938684904 
_cell_angle_beta                  90.60846950837097 
_cell_angle_gamma                 95.5651520177219 
loop_ 
_atom_site_label 
_atom_site_type_symbol 
_atom_site_fract_x 
_atom_site_fract_y 
_atom_site_fract_z 
_atom_site_charge 
N1          N  0.18954370  0.47886151  0.26603785    -0.02700
C2          C  0.18259692  0.95906186  0.24368009    -0.00100
C3          C  0.17127234  0.92542018  0.25093178    -0.23000
C4          C  0.16897912  0.92535411  0.27803769    -0.23200
C5          C  0.17858542  0.95897461  0.28693641    -0.00200
H6          H  0.16038697  0.90446460  0.23792583     0.13500
H7          H  0.15665929  0.90426429  0.28958170     0.13600
N8          N  0.20917440  0.51234025  0.26760481    -0.02700
C9          C  0.21651299  0.53255697  0.28993990    -0.00100
C10         C  0.23001859  0.56558051  0.28274165    -0.23000
C11         C  0.23352473  0.56516001  0.25576896    -0.23200
C12         C  0.22234947  0.53186010  0.24692678    -0.00200
H13         H  0.24159283  0.58607939  0.29588113     0.13500
H14         H  0.24753058  0.58545355  0.24439387     0.13600
N15         N  0.38085460  0.21125247  0.26459501    -0.02700
C16         C  0.37111679  0.19027949  0.24301559    -0.00100
C17         C  0.35355550  0.15923399  0.25067109    -0.23000
C18         C  0.35309963  0.15974947  0.27757147    -0.23200
C19         C  0.37081710  0.19088067  0.28586822    -0.00200
H20         H  0.34582371  0.13667511  0.23813583     0.13500
H21         H  0.34480632  0.13773235  0.28983768     0.13600
N22         N  0.37932160  0.24829236  0.26451443    -0.02700
C23         C  0.36715462  0.26632222  0.28559012    -0.00100
C24         C  0.34839182  0.29282735  0.27715564    -0.23000
C25         C  0.34934278  0.29250516  0.25027954    -0.23200
C26         C  0.36903147  0.26608699  0.24279635    -0.00200
H27         H  0.33852726  0.31293389  0.28937555     0.13500
H28         H  0.34027454  0.31227789  0.23762260     0.13600
O29         O  0.04458285  0.49172660  0.06093244    -0.74600
O30         O  0.50138843  0.49220848  0.09136107    -0.53500
C31         C  0.53341366  0.49161188  0.08529736     0.79200
O32         O  0.44499250  0.08482343  0.47102675    -0.59200
O33         O  0.44554086  0.04127709  0.44021944    -0.52200
C34         C  0.44368992  0.07353942  0.44682438     0.71200
O35         O  0.45327881  0.08755084  0.05986316    -0.73700
O36         O  0.45064899  0.04459731  0.09035295    -0.54300
C37         C  0.45162938  0.07689112  0.08388363     0.77200
O38         O  0.04346665  0.48651596  0.47116408    -0.58900
O39         O  0.49955306  0.48628601  0.44068721    -0.52000
C40         C  0.53168399  0.48482837  0.44727260     0.73800
Zr41       Zr  0.51982706  0.49010187  0.01600544     2.54700
O42         O  0.06483169  0.03788189  0.01687918    -0.79400
O43         O  0.05997325  0.44532639  0.01637661    -0.92800
Zr44       Zr  0.45251078  0.06135359  0.01555769     2.64700
O45         O  0.50359638  0.10327633  0.01280997    -0.97800
O46         O  0.41215409  0.10587169  0.01819704    -0.79900
O47         O  0.48732467  0.02692535  0.04155339    -0.83200
O48         O  0.48643567  0.02604606  0.48983616    -2.17900
O49         O  0.43717622  0.38947978  0.47115298    -0.66600
O50         O  0.43973448  0.43243378  0.44056800    -0.51200
C51         C  0.43708515  0.40012011  0.44705261     0.72200
O52         O  0.35102049  0.48862140  0.06184303    -0.59500
O53         O  0.39529404  0.49049797  0.09219874    -0.51500
C54         C  0.36299363  0.49033870  0.08586279     0.74000
O55         O  0.34872808  0.48769993  0.47179234    -0.70900
O56         O  0.39141675  0.48837738  0.44070514    -0.49600
C57         C  0.35953709  0.48867757  0.44769028     0.75300
O58         O  0.43807155  0.39137328  0.06117779    -0.66200
O59         O  0.44178849  0.43574785  0.09179689    -0.53400
C60         C  0.43842299  0.40308705  0.08530161     0.73700
Zr61       Zr  0.44181011  0.41475092  0.01618202     2.77500
O62         O  0.39325545  0.36951201  0.01555677    -0.97000
O63         O  0.48514077  0.37299497  0.01607663    -0.77800
Zr64       Zr  0.37363939  0.48464486  0.01669454     2.70100
O65         O  0.33253299  0.43271127  0.01833458    -0.79100
O66         O  0.32850493  0.02498829  0.01828639    -0.98100
Zr67       Zr  0.44762840  0.48938242  0.06660387     2.21500
Zr68       Zr  0.44556747  0.48715747  0.46517053     2.11100
O69         O  0.40613362  0.44932392  0.49030011    -2.46800
O70         O  0.40774218  0.44974881  0.04237660    -0.78800
O71         O  0.47976511  0.45114719  0.49049375    -0.71000
O72         O  0.41343831  0.02473616  0.04117705    -2.32000
O73         O  0.48180027  0.45241730  0.04177595    -2.28200
O74         O  0.41169866  0.02328531  0.49060679    -0.72800
H75         H  0.50130316  0.04040399  0.47817640     0.79200
H76         H  0.40040679  0.03907972  0.05257021     0.80300
H77         H  0.39066710  0.43481307  0.47880408     0.82500
H78         H  0.49487764  0.43879573  0.05333901     0.80100
H79         H  0.38922308  0.09270136  0.02091209     0.43100
H80         H  0.33454147  0.04227502  0.00433707     0.42100
H81         H  0.33601339  0.41970643  0.00163712     0.41800
H82         H  0.40319439  0.34849428  0.02212894     0.39700
H83         H  0.50257308  0.38220654  0.00306784     0.42900
H84         H  0.04998696  0.42779742  0.02903019     0.37600
H85         H  0.05892208  0.05269498  0.00194148     0.43800
H86         H  0.49317895  0.12658182  0.51253512     0.40200
H87         H  0.37796745  0.37630365  0.03000628     0.45100
H88         H  0.08104850  0.45653317  0.02551424     0.43800
H89         H  0.51241741  0.10630767  0.03130538     0.44000
H90         H  0.30742779  0.01094976  0.01138849     0.44300
C91         C  0.43210434  0.37365334  0.42507141    -0.11200
C92         C  0.43656768  0.33780671  0.42831246     0.04200
C93         C  0.42862654  0.31400614  0.40725066    -0.11800
C94         C  0.41708761  0.32522476  0.38271226     0.19100
C95         C  0.41398827  0.36086108  0.37904016    -0.08800
C96         C  0.42122001  0.38456428  0.40003584    -0.01800
H97         H  0.43144908  0.28660318  0.41001135     0.05600
C98         C  0.40678859  0.29981661  0.36114286     0.21100
H99         H  0.41766472  0.41168993  0.39672322     0.10800
C100        C  0.37166835  0.28747077  0.35841062    -0.15200
C101        C  0.35885466  0.27196152  0.33457932     0.03800
C102        C  0.38138313  0.26854775  0.31301548    -0.10500
C103        C  0.41717816  0.27746528  0.31687614    -0.00500
C104        C  0.42997775  0.29295689  0.34082861    -0.05700
H105        H  0.35370059  0.29244748  0.37406308     0.06800
H106        H  0.43477346  0.27540694  0.30050591     0.10200
Br107      Br  0.39933041  0.37833849  0.34567342    -0.05400
Br108      Br  0.45450993  0.31921006  0.46023645    -0.02300
Br109      Br  0.30969506  0.25944332  0.33137955     0.00500
Br110      Br  0.47858876  0.30793348  0.34404921    -0.03800
C111        C  0.38512511  0.26858455  0.21612518    -0.11200
C112        C  0.42032269  0.28144617  0.21323236     0.04200
C113        C  0.43127473  0.29838436  0.18983365    -0.11800
C114        C  0.40746339  0.30347968  0.16936800     0.19100
C115        C  0.37313897  0.28802496  0.17125798    -0.08800
C116        C  0.36241116  0.27042446  0.19428026    -0.01800
H117        H  0.45775208  0.31025467  0.18858455     0.05600
C118        C  0.41714215  0.32914595  0.14836175     0.21100
H119        H  0.33513449  0.26156154  0.19631176     0.11600
C120        C  0.43490795  0.31925838  0.12579812    -0.15200
C121        C  0.44266215  0.34279958  0.10516797     0.03800
C122        C  0.43304405  0.37735949  0.10712950    -0.10500
C123        C  0.41608317  0.38723870  0.13023897    -0.00500
C124        C  0.40778085  0.36348789  0.15047930    -0.05700
H125        H  0.44227194  0.29291892  0.12403419     0.06800
H126        H  0.40807278  0.41330645  0.13224284     0.10200
Br127      Br  0.33887248  0.29449259  0.14441809    -0.05400
Br128      Br  0.45309532  0.28203399  0.24206302    -0.02300
Br129      Br  0.46708357  0.32597199  0.07534959     0.00500
Br130      Br  0.38235961  0.37877865  0.18031146    -0.03800
C131        C  0.43855367  0.09890009  0.42500035    -0.11200
C132        C  0.43554321  0.13510767  0.42950643     0.04200
C133        C  0.42754718  0.15642410  0.40833401    -0.11800
C134        C  0.42271663  0.14289154  0.38246593     0.19100
C135        C  0.42681076  0.10749212  0.37768095    -0.08800
C136        C  0.43461375  0.08601684  0.39865317    -0.01800
H137        H  0.42447396  0.18369119  0.41214892     0.05600
C138        C  0.41098347  0.16496743  0.36083563     0.21100
H139        H  0.43672124  0.05873550  0.39421443     0.10800
C140        C  0.43428050  0.17678466  0.34099975    -0.15200
C141        C  0.42225514  0.19007755  0.31716649     0.03800
C142        C  0.38634380  0.19220115  0.31306975    -0.10500
C143        C  0.36369762  0.18370522  0.33418874    -0.00500
C144        C  0.37561119  0.16987581  0.35772338    -0.05700
H145        H  0.46156191  0.17306697  0.34318549     0.06800
H146        H  0.33598132  0.18437013  0.33125461     0.10200
Br147      Br  0.42019717  0.08683915  0.34284262    -0.05400
Br148      Br  0.44136575  0.15813584  0.46362143    -0.02300
Br149      Br  0.45538484  0.19971993  0.28962800     0.00500
Br150      Br  0.34184475  0.15325847  0.38333980    -0.03800
C151        C  0.44894071  0.10300188  0.10578888    -0.11200
C152        C  0.44169614  0.13801104  0.10155170     0.04200
C153        C  0.43419060  0.15922950  0.12317855    -0.11800
C154        C  0.43369234  0.14660423  0.14907546     0.19100
C155        C  0.44202271  0.11242622  0.15346296    -0.08800
C156        C  0.45005724  0.09132904  0.13210430    -0.01800
H157        H  0.42730385  0.18537621  0.11968422     0.05600
C158        C  0.41950521  0.16716728  0.17070584     0.21100
H159        H  0.45551458  0.06489552  0.13621022     0.10800
C160        C  0.38361254  0.16949440  0.17099568    -0.15200
C161        C  0.36763686  0.18126235  0.19370293     0.03800
C162        C  0.38770532  0.19127625  0.21662845    -0.10500
C163        C  0.42406492  0.19245316  0.21525856    -0.00500
C164        C  0.44005070  0.18048367  0.19247301    -0.05700
H165        H  0.36763706  0.15971539  0.15418631     0.06800
H166        H  0.43988203  0.19989438  0.23260842     0.10200
Br167      Br  0.43915525  0.09176481  0.18788648    -0.05400
Br168      Br  0.43903820  0.15883919  0.06725107    -0.02300
Br169      Br  0.31787770  0.17988396  0.19328559     0.00500
Br170      Br  0.48961039  0.18014876  0.19258326    -0.03800
C171        C  0.22620788  0.51965178  0.31643478    -0.11200
C172        C  0.22106741  0.53860884  0.34010151     0.04200
C173        C  0.23771720  0.53028705  0.36369014    -0.11800
C174        C  0.25932621  0.50309372  0.36413105     0.19100
C175        C  0.26216738  0.48248484  0.34119316    -0.08800
C176        C  0.24600431  0.49104842  0.31764388    -0.01800
H177        H  0.23702167  0.04781606  0.38082063     0.05600
C178        C  0.28358629  0.50041223  0.38664521     0.21100
H179        H  0.25005630  0.47594371  0.30002195     0.10800
C180        C  0.27783102  0.47346563  0.40493015    -0.15200
C181        C  0.30264871  0.46875814  0.42470759     0.03800
C182        C  0.33344004  0.49155261  0.42651582    -0.10500
C183        C  0.34030696  0.01732908  0.40777082    -0.00500
C184        C  0.31594251  0.02240267  0.38793563    -0.05700
H185        H  0.25454796  0.45548679  0.40327841     0.06800
H186        H  0.36440619  0.03421194  0.40872404     0.10200
Br187      Br  0.29071684  0.44447155  0.34043494    -0.05400
Br188      Br  0.19406928  0.07787783  0.34043149    -0.02300
Br189      Br  0.29498184  0.42902583  0.44712120     0.00500
Br190      Br  0.32768873  0.05759540  0.36216736    -0.03800
C191        C  0.23512974  0.51923534  0.22106068    -0.11200
C192        C  0.25752088  0.49238409  0.21924139     0.04200
C193        C  0.27404947  0.48609584  0.19535587    -0.11800
C194        C  0.26991311  0.50685459  0.17326393     0.19100
C195        C  0.24724808  0.53317358  0.17466003    -0.08800
C196        C  0.22986343  0.53896457  0.19832428    -0.01800
H197        H  0.29202180  0.46622639  0.19447336     0.05600
C198        C  0.29301658  0.50343545  0.15042127     0.21100
H199        H  0.21405712  0.06026434  0.19920568     0.10800
C200        C  0.28200706  0.98299478  0.12812656    -0.15200
C201        C  0.30445577  0.97778125  0.10706580     0.03800
C202        C  0.33830395  0.49383665  0.10786758    -0.10500
C203        C  0.34963559  0.51433715  0.13021916    -0.00500
C204        C  0.32743933  0.51899307  0.15139188    -0.05700
H205        H  0.25568134  0.97047735  0.12747383     0.06800
H206        H  0.37589754  0.52700569  0.13122458     0.10200
Br207      Br  0.24332152  0.06454949  0.14574064    -0.05400
Br208      Br  0.27054057  0.46592547  0.24886448    -0.02300
Br209      Br  0.28728910  0.94626271  0.07900801     0.00500
Br210      Br  0.34532073  0.54652553  0.18148337    -0.03800
C211        C  0.05738234  0.48340736  0.42530364    -0.11200
C212        C  0.04896636  0.46428117  0.40151218     0.04200
C213        C  0.07355549  0.46331059  0.38142598    -0.11800
C214        C  0.10677310  0.48104984  0.38426519     0.19100
C215        C  0.11612041  0.00060775  0.40823123    -0.08800
C216        C  0.09162388  0.00128207  0.42861824    -0.01800
H217        H  0.06665990  0.44862650  0.36329506     0.05600
C218        C  0.13066779  0.48046742  0.36147260     0.21100
H219        H  0.09884153  0.01573806  0.44677789     0.10800
C220        C  0.12458725  0.00109456  0.33919498    -0.15200
C221        C  0.14112971  0.99577316  0.31508063     0.03800
C222        C  0.16492448  0.47018311  0.31292831    -0.10500
C223        C  0.17253119  0.45143969  0.33570424    -0.00500
C224        C  0.15584787  0.45655212  0.35982776    -0.05700
H225        H  0.10481169  0.01914913  0.34006369     0.06800
H226        H  0.19067726  0.43177582  0.33442030     0.10200
Br227      Br  0.16095344  0.02587812  0.41335051    -0.05400
Br228      Br  0.50582353  0.43499950  0.39641634    -0.02300
Br229      Br  0.12558487  0.02042451  0.28529095     0.00500
Br230      Br  0.16617031  0.42838107  0.38936720    -0.03800
C231        C  0.05956823  0.49204661  0.10722211    -0.11200
C232        C  0.04973584  0.48687529  0.13409879     0.04200
C233        C  0.07518462  0.48616894  0.15389647    -0.11800
C234        C  0.11066251  0.49036593  0.14807669     0.19100
C235        C  0.12048302  0.99515907  0.12168504    -0.08800
C236        C  0.09501311  0.99567486  0.10168791    -0.01800
H237        H  0.06713473  0.48157320  0.17418917     0.05600
C238        C  0.13587258  0.48773083  0.17029673     0.21100
H239        H  0.10342306  0.99924716  0.08139205     0.10800
C240        C  0.15719363  0.46026410  0.17041084    -0.15200
C241        C  0.17544093  0.45249090  0.19342534     0.03800
C242        C  0.17170250  0.47171711  0.21722147    -0.10500
C243        C  0.15275993  0.00116336  0.21646826    -0.00500
C244        C  0.13531741  0.00962590  0.19338282    -0.05700
H245        H  0.15835222  0.44369618  0.15294006     0.06800
H246        H  0.15051584  0.01703596  0.23403196     0.10200
Br247      Br  0.16833484  0.00065452  0.11148747    -0.05400
Br248      Br  0.50218321  0.47594185  0.14604487    -0.02300
Br249      Br  0.20469181  0.41509605  0.19118978     0.00500
Br250      Br  0.11005619  0.05008205  0.19453558    -0.03800
N251        N  0.18926837  0.47856811  0.76627002    -0.02700
C252        C  0.18225057  0.95844277  0.74374229    -0.00100
C253        C  0.16961164  0.92514393  0.75091198    -0.23000
C254        C  0.16668128  0.92527535  0.77794380    -0.23200
C255        C  0.17740816  0.95863499  0.78688799    -0.00200
H256        H  0.15824357  0.90451261  0.73780785     0.13500
H257        H  0.15342284  0.90460427  0.78939093     0.13600
N258        N  0.20897815  0.51202088  0.76780990    -0.02700
C259        C  0.21652505  0.53228244  0.79010725    -0.00100
C260        C  0.22980815  0.56534531  0.78281849    -0.23000
C261        C  0.23288755  0.56496043  0.75584036    -0.23200
C262        C  0.22180303  0.53161291  0.74708068    -0.00200
H263        H  0.24158001  0.58587587  0.79583791     0.13500
H264        H  0.24672120  0.58528585  0.74439013     0.13600
N265        N  0.38173959  0.21193140  0.76478678    -0.02700
C266        C  0.37160231  0.19111328  0.74321917    -0.00100
C267        C  0.35418570  0.16000976  0.75090243    -0.23000
C268        C  0.35428073  0.16030991  0.77780370    -0.23200
C269        C  0.37210017  0.19140295  0.78604867    -0.00200
H270        H  0.34625639  0.13752928  0.73833882     0.13500
H271        H  0.34620134  0.13822287  0.79006193     0.13600
N272        N  0.38018176  0.24896361  0.76488564    -0.02700
C273        C  0.36779490  0.26686051  0.78591750    -0.00100
C274        C  0.34966041  0.29382861  0.77746993    -0.23000
C275        C  0.35119792  0.29386822  0.75062304    -0.23200
C276        C  0.37052367  0.26714024  0.74320196    -0.00200
H277        H  0.33990112  0.31397196  0.78971545     0.13500
H278        H  0.34268615  0.31394122  0.73798365     0.13600
O279        O  0.04446666  0.49018493  0.56119382    -0.74600
O280        O  0.50106314  0.49180689  0.59141624    -0.53500
C281        C  0.53306687  0.49094221  0.58535061     0.79200
O282        O  0.44534445  0.08497967  0.97122878    -0.59200
O283        O  0.44576775  0.04145841  0.94040992    -0.52200
C284        C  0.44399557  0.07370468  0.94702289     0.71200
O285        O  0.45270496  0.08803720  0.55966509    -0.73700
O286        O  0.44957598  0.04513070  0.59023098    -0.54300
C287        C  0.45066192  0.07743462  0.58370790     0.77200
O288        O  0.04307205  0.48660637  0.97100203    -0.58900
O289        O  0.49987753  0.48761676  0.94060818    -0.52000
C290        C  0.53210455  0.48675558  0.94712141     0.73800
Zr291      Zr  0.51925120  0.48959079  0.51605958     2.54700
O292        O  0.06752286  0.03622047  0.51621306    -0.79400
O293        O  0.06098926  0.44563999  0.51498803    -0.92800
Zr294      Zr  0.45201754  0.06139929  0.51542784     2.64700
O295        O  0.50279196  0.10368847  0.51261312    -0.97800
O296        O  0.41171196  0.10596818  0.51789530    -0.79900
O297        O  0.48690376  0.02720137  0.54157012    -0.83200
O298        O  0.48685243  0.02599488  0.98997258    -2.17900
O299        O  0.43739107  0.38972411  0.97125894    -0.66600
O300        O  0.44087513  0.43263202  0.94061151    -0.51200
C301        C  0.43772477  0.40031577  0.94714812     0.72200
O302        O  0.35076943  0.48866760  0.56197040    -0.59500
O303        O  0.39515345  0.49067454  0.59225182    -0.51500
C304        C  0.36284465  0.49054721  0.58599273     0.74000
O305        O  0.34833858  0.48526095  0.97214940    -0.70900
O306        O  0.39119900  0.48740510  0.94116595    -0.49600
C307        C  0.35918000  0.48671649  0.94809130     0.75300
O308        O  0.43700509  0.39127204  0.56120060    -0.66200
O309        O  0.44168348  0.43570525  0.59176982    -0.53400
C310        C  0.43799564  0.40305679  0.58532006     0.73700
Zr311      Zr  0.44049645  0.41451946  0.51616405     2.77500
O312        O  0.39099444  0.37030144  0.51616514    -0.97000
O313        O  0.48192725  0.37089070  0.51660314    -0.77800
Zr314      Zr  0.37317483  0.48522030  0.51658781     2.70100
O315        O  0.33114399  0.43390840  0.51568628    -0.79100
O316        O  0.32730721  0.02380489  0.51788172    -0.98100
Zr317      Zr  0.44728964  0.48919959  0.56658119     2.21500
Zr318      Zr  0.44593912  0.48746100  0.96519694     2.11100
O319        O  0.40706132  0.44925104  0.99039651    -2.46800
O320        O  0.40689633  0.44998273  0.54237138    -0.78800
O321        O  0.48055145  0.45164432  0.99035093    -0.71000
O322        O  0.41295274  0.02476169  0.54104889    -2.32000
O323        O  0.48092854  0.45195370  0.54163447    -2.28200
O324        O  0.41202386  0.02351417  0.99074196    -0.72800
H325        H  0.50172887  0.04039274  0.97834603     0.79200
H326        H  0.39982397  0.03912460  0.55235120     0.80300
H327        H  0.39178421  0.43456709  0.97889745     0.82500
H328        H  0.49394319  0.43823701  0.55316150     0.80100
H329        H  0.38849301  0.09297631  0.51554460     0.43100
H330        H  0.33307349  0.04108876  0.50388217     0.42100
H331        H  0.34051017  0.41781281  0.52843849     0.41800
H332        H  0.37851290  0.37324109  0.49920448     0.39700
H333        H  0.50381534  0.38332049  0.51028083     0.42900
H334        H  0.05846930  0.43385812  0.53228265     0.37600
H335        H  0.06145593  0.05199984  0.50194097     0.43800
H336        H  0.49419651  0.12561644  0.00875379     0.40200
H337        H  0.40129221  0.34792279  0.51393826     0.45100
H338        H  0.08410049  0.45911937  0.51603992     0.43800
H339        H  0.51449946  0.10292846  0.53013754     0.44000
H340        H  0.30649449  0.00933916  0.51097563     0.44300
C341        C  0.43263406  0.37374760  0.92525071    -0.11200
C342        C  0.43614791  0.33774300  0.92878496     0.04200
C343        C  0.42811961  0.31388983  0.90778511    -0.11800
C344        C  0.41727963  0.32514801  0.88307231     0.19100
C345        C  0.41494276  0.36086680  0.87915355    -0.08800
C346        C  0.42243439  0.38467688  0.90004462    -0.01800
H347        H  0.43026032  0.28639892  0.91074670     0.05600
C348        C  0.40692233  0.29970884  0.86156415     0.21100
H349        H  0.41950323  0.41189024  0.89653879     0.10800
C350        C  0.37173343  0.28766465  0.85868291    -0.15200
C351        C  0.35901937  0.27221700  0.83480849     0.03800
C352        C  0.38170460  0.26870889  0.81337910    -0.10500
C353        C  0.41750960  0.27722060  0.81741014    -0.00500
C354        C  0.43022800  0.29253671  0.84141369    -0.05700
H355        H  0.35368619  0.29281948  0.87423524     0.06800
H356        H  0.43521228  0.27499275  0.80112776     0.10200
Br357      Br  0.40073943  0.37829563  0.84564462    -0.05400
Br358      Br  0.45265849  0.31885905  0.96109865    -0.02300
Br359      Br  0.30986737  0.25982378  0.83130884     0.00500
Br360      Br  0.47894418  0.30684685  0.84488539    -0.03800
C361        C  0.38673150  0.26931849  0.71662742    -0.11200
C362        C  0.42197309  0.28205064  0.71383300     0.04200
C363        C  0.43302421  0.29906321  0.69050066    -0.11800
C364        C  0.40922598  0.30432746  0.67006760     0.19100
C365        C  0.37486573  0.28898506  0.67187410    -0.08800
C366        C  0.36407898  0.27123877  0.69478127    -0.01800
H367        H  0.45953708  0.31084503  0.68928393     0.05600
C368        C  0.41890506  0.32992446  0.64908556     0.21100
H369        H  0.33677555  0.26246479  0.69678140     0.11600
C370        C  0.43542013  0.31957137  0.62608061    -0.15200
C371        C  0.44237974  0.34280144  0.60516087     0.03800
C372        C  0.43321876  0.37750961  0.60728077    -0.10500
C373        C  0.41758447  0.38786574  0.63084935    -0.00500
C374        C  0.41006992  0.36442326  0.65139872    -0.05700
H375        H  0.44227159  0.29306130  0.62416478     0.06800
H376        H  0.40997060  0.41406983  0.63300787     0.10200
Br377      Br  0.34056416  0.29598430  0.64518934    -0.05400
Br378      Br  0.45461546  0.28235212  0.74273928    -0.02300
Br379      Br  0.46489717  0.32520499  0.57468288     0.00500
Br380      Br  0.38622876  0.38029186  0.68185667    -0.03800
C381        C  0.43893940  0.09900830  0.92517211    -0.11200
C382        C  0.43660789  0.13533737  0.92956397     0.04200
C383        C  0.42892542  0.15668671  0.90833067    -0.11800
C384        C  0.42351175  0.14299322  0.88255173     0.19100
C385        C  0.42668289  0.10737912  0.87791294    -0.08800
C386        C  0.43440048  0.08593583  0.89891206    -0.01800
H387        H  0.42646765  0.18409805  0.91204326     0.05600
C388        C  0.41209063  0.16518454  0.86089416     0.21100
H389        H  0.43587848  0.05852372  0.89457630     0.10800
C390        C  0.43548114  0.17660535  0.84100139    -0.15200
C391        C  0.42360875  0.19015832  0.81721073     0.03800
C392        C  0.38776255  0.19274849  0.81318199    -0.10500
C393        C  0.36510301  0.18464894  0.83434291    -0.00500
C394        C  0.37686252  0.17073437  0.85787568    -0.05700
H395        H  0.46267254  0.17248827  0.84314527     0.06800
H396        H  0.33743330  0.18573054  0.83145949     0.10200
Br397      Br  0.41878136  0.08636331  0.84330135    -0.05400
Br398      Br  0.44280148  0.15842485  0.96363045    -0.02300
Br399      Br  0.45677367  0.19977888  0.78968897     0.00500
Br400      Br  0.34296817  0.15503117  0.88365684    -0.03800
C401        C  0.44781155  0.10362246  0.60559248    -0.11200
C402        C  0.44010317  0.13849842  0.60134142     0.04200
C403        C  0.43308861  0.15989026  0.62300041    -0.11800
C404        C  0.43324818  0.14750825  0.64895262     0.19100
C405        C  0.44166183  0.11335801  0.65334157    -0.08800
C406        C  0.44941430  0.09214951  0.63194892    -0.01800
H407        H  0.42593428  0.18594187  0.61949841     0.05600
C408        C  0.41936606  0.16817464  0.67065983     0.21100
H409        H  0.45507163  0.06578319  0.63607599     0.10800
C410        C  0.38350723  0.17070406  0.67108673    -0.15200
C411        C  0.36771855  0.18233123  0.69391416     0.03800
C412        C  0.38797460  0.19213033  0.71678048    -0.10500
C413        C  0.42431009  0.19317143  0.71528412    -0.00500
C414        C  0.44009870  0.18125237  0.69240448    -0.05700
H415        H  0.36739043  0.16108100  0.65430951     0.06800
H416        H  0.44024484  0.20042237  0.73261382     0.10200
Br417      Br  0.43918738  0.09287769  0.68785014    -0.05400
Br418      Br  0.43571377  0.15879566  0.56701937    -0.02300
Br419      Br  0.31795297  0.18088873  0.69375922     0.00500
Br420      Br  0.48962011  0.18055109  0.69240150    -0.03800
C421        C  0.22641087  0.51953500  0.81661380    -0.11200
C422        C  0.22218891  0.53910273  0.84016118     0.04200
C423        C  0.23912525  0.53088994  0.86364015    -0.11800
C424        C  0.26002058  0.50314053  0.86414420     0.19100
C425        C  0.26202859  0.48203300  0.84136742    -0.08800
C426        C  0.24560840  0.49049490  0.81789392    -0.01800
H427        H  0.23799574  0.04730379  0.88078241     0.05600
C428        C  0.28401763  0.49988482  0.88672257     0.21100
H429        H  0.24895667  0.47490831  0.80038778     0.10800
C430        C  0.27708048  0.47352724  0.90533879    -0.15200
C431        C  0.30141329  0.46829494  0.92536661     0.03800
C432        C  0.33312547  0.48979998  0.92688710    -0.10500
C433        C  0.34015992  0.01835315  0.90806344    -0.00500
C434        C  0.31577853  0.02282768  0.88810080    -0.05700
H435        H  0.25312812  0.45649618  0.90384877     0.06800
H436        H  0.36379896  0.03590835  0.90925721     0.10200
Br437      Br  0.28965694  0.44330283  0.84072374    -0.05400
Br438      Br  0.19571951  0.07821839  0.84064432    -0.02300
Br439      Br  0.29130473  0.42981395  0.94864695     0.00500
Br440      Br  0.32633143  0.05910455  0.86295903    -0.03800
C441        C  0.23478889  0.51904249  0.72131699    -0.11200
C442        C  0.25740116  0.49237714  0.71963011     0.04200
C443        C  0.27452452  0.48655984  0.69593290    -0.11800
C444        C  0.27060651  0.50750607  0.67391041     0.19100
C445        C  0.24761845  0.53353956  0.67515939    -0.08800
C446        C  0.22970696  0.53889141  0.69862588    -0.01800
H447        H  0.29262449  0.46680599  0.69512019     0.05600
C448        C  0.29361810  0.50403779  0.65103861     0.21100
H449        H  0.21371051  0.05921104  0.69934179     0.10800
C450        C  0.28163450  0.98267294  0.62822615    -0.15200
C451        C  0.30390519  0.97762023  0.60702939     0.03800
C452        C  0.33835298  0.49427855  0.60814230    -0.10500
C453        C  0.35025630  0.51403697  0.63075768    -0.00500
C454        C  0.32833100  0.51873314  0.65211106    -0.05700
H455        H  0.25525864  0.97027968  0.62760193     0.06800
H456        H  0.37675992  0.52606413  0.63184944     0.10200
Br457      Br  0.24199949  0.06278533  0.64556810    -0.05400
Br458      Br  0.26970772  0.46538628  0.74917751    -0.02300
Br459      Br  0.28643484  0.94634982  0.57892155     0.00500
Br460      Br  0.34688654  0.54513774  0.68255410    -0.03800
C461        C  0.05704350  0.48362885  0.92520720    -0.11200
C462        C  0.04872564  0.46452756  0.90139649     0.04200
C463        C  0.07337054  0.46370126  0.88135065    -0.11800
C464        C  0.10650917  0.48158178  0.88427724     0.19100
C465        C  0.11567128  0.00064416  0.90802557    -0.08800
C466        C  0.09115584  0.00153872  0.92838017    -0.01800
H467        H  0.06659162  0.44902581  0.86319559     0.05600
C468        C  0.13052977  0.48103853  0.86161321     0.21100
H469        H  0.09802992  0.01686209  0.94620494     0.10800
C470        C  0.12477047  0.00103501  0.83973081    -0.15200
C471        C  0.14134116  0.99617351  0.81555528     0.03800
C472        C  0.16464455  0.47050562  0.81314249    -0.10500
C473        C  0.17199968  0.45156059  0.83585595    -0.00500
C474        C  0.15538304  0.45680171  0.85995784    -0.05700
H475        H  0.10536402  0.01945590  0.84092538     0.06800
H476        H  0.18981287  0.43159049  0.83451609     0.10200
Br477      Br  0.16014882  0.02679791  0.91261000    -0.05400
Br478      Br  0.50549676  0.43828734  0.89564954    -0.02300
Br479      Br  0.12700833  0.02253951  0.78625658     0.00500
Br480      Br  0.16528541  0.42835033  0.88943365    -0.03800
C481        C  0.05920702  0.49051705  0.60753025    -0.11200
C482        C  0.04931254  0.48555199  0.63442559     0.04200
C483        C  0.07474877  0.48504638  0.65426093    -0.11800
C484        C  0.11022135  0.48955216  0.64845005     0.19100
C485        C  0.12060334  0.99403093  0.62182780    -0.08800
C486        C  0.09527248  0.99500795  0.60179278    -0.01800
H487        H  0.06671655  0.48053047  0.67456802     0.05600
C488        C  0.13551077  0.48709267  0.67058411     0.21100
H489        H  0.10380526  0.99815714  0.58149212     0.10800
C490        C  0.15677715  0.45958889  0.67073238    -0.15200
C491        C  0.17504677  0.45191177  0.69374754     0.03800
C492        C  0.17148653  0.47140342  0.71744341    -0.10500
C493        C  0.15272464  0.00054310  0.71659622    -0.00500
C494        C  0.13515505  0.00886137  0.69356305    -0.05700
H495        H  0.15779033  0.44288791  0.65331760     0.06800
H496        H  0.15027047  0.01625817  0.73422908     0.10200
Br497      Br  0.16848147  0.99862122  0.61167343    -0.05400
Br498      Br  0.50190455  0.47526677  0.64610672    -0.02300
Br499      Br  0.20373746  0.41403131  0.69175037     0.00500
Br500      Br  0.10954392  0.04906849  0.69491481    -0.03800
N501        N  0.18989072  0.97921941  0.26606091    -0.02700
C502        C  0.18236589  0.45879200  0.24359162    -0.00100
C503        C  0.17073366  0.42517811  0.25071704    -0.23000
C504        C  0.16818035  0.42501285  0.27778676    -0.23200
C505        C  0.17796203  0.45854066  0.28678851    -0.00200
H506        H  0.15979629  0.40434799  0.23761672     0.13500
H507        H  0.15561669  0.40394822  0.28922893     0.13600
N508        N  0.20971277  0.01259986  0.26744015    -0.02700
C509        C  0.21737912  0.03291914  0.28966464    -0.00100
C510        C  0.23110405  0.06580177  0.28230183    -0.23000
C511        C  0.23436292  0.06519539  0.25532594    -0.23200
C512        C  0.22285655  0.03191376  0.24664691    -0.00200
H513        H  0.24295885  0.08629729  0.29532045     0.13500
H514        H  0.24844149  0.08531265  0.24382721     0.13600
N515        N  0.38107766  0.71141690  0.26478622    -0.02700
C516        C  0.37145681  0.69041849  0.24321980    -0.00100
C517        C  0.35415571  0.65924234  0.25084925    -0.23000
C518        C  0.35362893  0.65976451  0.27774563    -0.23200
C519        C  0.37106489  0.69103102  0.28607259    -0.00200
H520        H  0.34660724  0.63665500  0.23829546     0.13500
H521        H  0.34548111  0.63769384  0.29000181     0.13600
N522        N  0.37977699  0.74848681  0.26462164    -0.02700
C523        C  0.36763373  0.76668418  0.28559105    -0.00100
C524        C  0.34953815  0.79362325  0.27704170    -0.23000
C525        C  0.35085037  0.79333839  0.25018296    -0.23200
C526        C  0.37006229  0.76648635  0.24283009    -0.00200
H527        H  0.33997283  0.81396329  0.28919862     0.13500
H528        H  0.34237003  0.81335327  0.23747210     0.13600
O529        O  0.04426742  0.99027457  0.06127694    -0.74600
O530        O  0.50166778  0.99195989  0.09129149    -0.53500
C531        C  0.53371716  0.99143044  0.08530391     0.79200
O532        O  0.44488305  0.58449803  0.47110938    -0.59200
O533        O  0.44556424  0.54097495  0.44029808    -0.52200
C534        C  0.44374700  0.57322759  0.44690054     0.71200
O535        O  0.45113082  0.58733341  0.05985853    -0.73700
O536        O  0.45007684  0.54471258  0.09054075    -0.54300
C537        C  0.45022964  0.57689454  0.08395043     0.77200
O538        O  0.04377941  0.98717482  0.47133158    -0.58900
O539        O  0.49980881  0.98636624  0.44053515    -0.52000
C540        C  0.53200172  0.98548172  0.44712985     0.73800
Zr541      Zr  0.52012117  0.98985590  0.01597689     2.54700
O542        O  0.06692802  0.53635101  0.01527037    -0.79400
O543        O  0.06121738  0.94601550  0.01680831    -0.92800
Zr544      Zr  0.45153250  0.56115197  0.01555813     2.64700
O545        O  0.50257923  0.60326348  0.01428218    -0.97800
O546        O  0.41191862  0.60641244  0.01718183    -0.79900
O547        O  0.48676689  0.52710274  0.04152859    -0.83200
O548        O  0.48592698  0.52564953  0.49005225    -2.17900
O549        O  0.43731536  0.88955588  0.47119316    -0.66600
O550        O  0.44033748  0.93250913  0.44059011    -0.51200
C551        C  0.43742877  0.90018345  0.44708375     0.72200
O552        O  0.35164767  0.98888264  0.06181899    -0.59500
O553        O  0.39591266  0.99039891  0.09216262    -0.51500
C554        C  0.36363487  0.99036665  0.08584813     0.74000
O555        O  0.34896504  0.98689269  0.47165670    -0.70900
O556        O  0.39172590  0.98765530  0.44064320    -0.49600
C557        C  0.35980853  0.98776304  0.44757469     0.75300
O558        O  0.43779276  0.89127099  0.06082297    -0.66200
O559        O  0.44224054  0.93553572  0.09150516    -0.53400
C560        C  0.43860788  0.90289102  0.08497788     0.73700
Zr561      Zr  0.44158351  0.91475695  0.01587312     2.77500
O562        O  0.39363412  0.86887948  0.01626646    -0.97000
O563        O  0.48389566  0.87194158  0.01554581    -0.77800
Zr564      Zr  0.37403916  0.98562288  0.01650306     2.70100
O565        O  0.33142300  0.93481251  0.01624687    -0.79100
O566        O  0.32682138  0.52254278  0.01782931    -0.98100
Zr567      Zr  0.44801761  0.98923591  0.06642566     2.21500
Zr568      Zr  0.44597837  0.98740269  0.46508533     2.11100
O569        O  0.40673195  0.94947372  0.49025034    -2.46800
O570        O  0.40777180  0.95011874  0.04203450    -0.78800
O571        O  0.48036500  0.95160428  0.49044562    -0.71000
O572        O  0.41263381  0.52439838  0.04122625    -2.32000
O573        O  0.48189880  0.95209793  0.04154417    -2.28200
O574        O  0.41123156  0.52290040  0.49071185    -0.72800
H575        H  0.50083936  0.54002539  0.47843422     0.79200
H576        H  0.39943319  0.53869912  0.05252240     0.80300
H577        H  0.39128983  0.93489089  0.47879248     0.82500
H578        H  0.49491341  0.93844115  0.05312011     0.80100
H579        H  0.38984157  0.59513494  0.00959453     0.43100
H580        H  0.33334575  0.54070888  0.00462896     0.42100
H581        H  0.34147517  0.91813577  0.02815878     0.41800
H582        H  0.37936623  0.87295627  0.00038897     0.39700
H583        H  0.49929663  0.87835023  0.03102706     0.42900
H584        H  0.05418009  0.93078835  0.03185962     0.37600
H585        H  0.06316585  0.55103743  0.03108196     0.43800
H586        H  0.49007409  0.62734512  0.51132201     0.40200
H587        H  0.40443122  0.84724364  0.01198147     0.45100
H588        H  0.08332243  0.95903583  0.02279125     0.43800
H589        H  0.51378695  0.60176449  0.03193686     0.44000
H590        H  0.30651435  0.50840020  0.00980315     0.44300
C591        C  0.43247544  0.87370414  0.42508791    -0.11200
C592        C  0.43716243  0.83789273  0.42827073     0.04200
C593        C  0.42946349  0.81411694  0.40714281    -0.11800
C594        C  0.41788993  0.82532623  0.38260634     0.19100
C595        C  0.41454653  0.86093280  0.37900802    -0.08800
C596        C  0.42156521  0.88460310  0.40005890    -0.01800
H597        H  0.43241832  0.78673448  0.40987293     0.05600
C598        C  0.40738869  0.79990921  0.36107467     0.21100
H599        H  0.41782290  0.91169749  0.39679725     0.10800
C600        C  0.37213888  0.78802708  0.35830032    -0.15200
C601        C  0.35920446  0.77253473  0.33449903     0.03800
C602        C  0.38172526  0.76874213  0.31301127    -0.10500
C603        C  0.41756381  0.77720174  0.31689101    -0.00500
C604        C  0.43050733  0.79262332  0.34080830    -0.05700
H605        H  0.35420788  0.79334586  0.37389406     0.06800
H606        H  0.43513203  0.77486556  0.30054066     0.10200
Br607      Br  0.39975388  0.87840222  0.34567756    -0.05400
Br608      Br  0.45509177  0.81934994  0.46021730    -0.02300
Br609      Br  0.30997410  0.76054501  0.33116812     0.00500
Br610      Br  0.47925569  0.80690820  0.34392582    -0.03800
C611        C  0.38637090  0.76871353  0.21623915    -0.11200
C612        C  0.42161675  0.78146710  0.21347089     0.04200
C613        C  0.43276628  0.79841627  0.19011049    -0.11800
C614        C  0.40906938  0.80369206  0.16959185     0.19100
C615        C  0.37463158  0.78852536  0.17145950    -0.08800
C616        C  0.36378918  0.77071664  0.19435185    -0.01800
H617        H  0.45930095  0.81014591  0.18893320     0.05600
C618        C  0.41891755  0.82927912  0.14855230     0.21100
H619        H  0.33646485  0.76201838  0.19633134     0.11600
C620        C  0.43481168  0.81877642  0.12529130    -0.15200
C621        C  0.44202950  0.84214094  0.10445276     0.03800
C622        C  0.43368131  0.87713105  0.10685921    -0.10500
C623        C  0.41867649  0.88757999  0.13066419    -0.00500
C624        C  0.41098504  0.86405033  0.15114801    -0.05700
H625        H  0.44104402  0.79208401  0.12313784     0.06800
H626        H  0.41170863  0.91398456  0.13309633     0.10200
Br627      Br  0.34021072  0.79603135  0.14500385    -0.05400
Br628      Br  0.45415832  0.78180577  0.24244164    -0.02300
Br629      Br  0.46381758  0.82430944  0.07370515     0.00500
Br630      Br  0.38817850  0.88025826  0.18197454    -0.03800
C631        C  0.43870470  0.59855050  0.42505249    -0.11200
C632        C  0.43695308  0.63497431  0.42942665     0.04200
C633        C  0.42871153  0.65630601  0.40832121    -0.11800
C634        C  0.42253270  0.64255439  0.38262899     0.19100
C635        C  0.42556448  0.60692438  0.37793539    -0.08800
C636        C  0.43348400  0.58543273  0.39885796    -0.01800
H637        H  0.42663135  0.68378217  0.41204625     0.05600
C638        C  0.41090056  0.66478500  0.36105200     0.21100
H639        H  0.43467787  0.55798012  0.39451537     0.10800
C640        C  0.43428084  0.67662517  0.34128151    -0.15200
C641        C  0.42237765  0.69011332  0.31747620     0.03800
C642        C  0.38649603  0.69236491  0.31331534    -0.10500
C643        C  0.36376477  0.68382670  0.33438117    -0.00500
C644        C  0.37556708  0.66985420  0.35790727    -0.05700
H645        H  0.46153635  0.67281351  0.34349731     0.06800
H646        H  0.33606769  0.68460988  0.33141170     0.10200
Br647      Br  0.41760652  0.58606854  0.34328094    -0.05400
Br648      Br  0.44524083  0.65827925  0.46324515    -0.02300
Br649      Br  0.45563072  0.69992744  0.29004846     0.00500
Br650      Br  0.34173333  0.65352475  0.38355815    -0.03800
C651        C  0.44768573  0.60313587  0.10580922    -0.11200
C652        C  0.44057765  0.63817947  0.10153142     0.04200
C653        C  0.43366413  0.65964451  0.12317390    -0.11800
C654        C  0.43361424  0.64723630  0.14913270     0.19100
C655        C  0.44181999  0.61302320  0.15354640    -0.08800
C656        C  0.44924103  0.59167253  0.13216406    -0.01800
H657        H  0.42683641  0.68580705  0.11965700     0.05600
C658        C  0.41960267  0.66789093  0.17078768     0.21100
H659        H  0.45462051  0.56523046  0.13631516     0.10800
C660        C  0.38370253  0.67022851  0.17114551    -0.15200
C661        C  0.36777848  0.68179746  0.19393251     0.03800
C662        C  0.38791944  0.69166257  0.21683070    -0.10500
C663        C  0.42426380  0.69289924  0.21541593    -0.00500
C664        C  0.44020286  0.68104004  0.19258932    -0.05700
H665        H  0.36767253  0.66051009  0.15434816     0.06800
H666        H  0.44009648  0.70018419  0.23279200     0.10200
Br667      Br  0.43954759  0.59264067  0.18808546    -0.05400
Br668      Br  0.43740135  0.65877038  0.06718358    -0.02300
Br669      Br  0.31800392  0.68027229  0.19372008     0.00500
Br670      Br  0.48972101  0.68033911  0.19286129    -0.03800
C671        C  0.22707565  0.02017175  0.31618986    -0.11200
C672        C  0.22229219  0.03956397  0.33970258     0.04200
C673        C  0.23912137  0.03155108  0.36328921    -0.11800
C674        C  0.26034846  0.00405422  0.36391400     0.19100
C675        C  0.26284087  0.98304010  0.34114798    -0.08800
C676        C  0.24667402  0.99142795  0.31755020    -0.01800
H677        H  0.23536700  0.54625602  0.38134619     0.05600
C678        C  0.28432537  0.00103272  0.38654258     0.21100
H679        H  0.25052764  0.97604859  0.30002065     0.10800
C680        C  0.27785063  0.97425674  0.40489352    -0.15200
C681        C  0.30250343  0.96886848  0.42463961     0.03800
C682        C  0.33384032  0.99086966  0.42635606    -0.10500
C683        C  0.33924384  0.51818249  0.40797982    -0.00500
C684        C  0.31467847  0.52262030  0.38811703    -0.05700
H685        H  0.25415026  0.95686718  0.40327176     0.06800
H686        H  0.36295416  0.53564408  0.40898356     0.10200
Br687      Br  0.29080923  0.94455424  0.34075997    -0.05400
Br688      Br  0.19278897  0.57686652  0.34108207    -0.02300
Br689      Br  0.29379630  0.92924322  0.44703415     0.00500
Br690      Br  0.32534951  0.55816301  0.36240951    -0.03800
C691        C  0.23538157  0.01907570  0.22078404    -0.11200
C692        C  0.25757385  0.99205618  0.21895803     0.04200
C693        C  0.27412673  0.98575461  0.19509410    -0.11800
C694        C  0.27033330  0.00675344  0.17308990     0.19100
C695        C  0.24786788  0.03325144  0.17449662    -0.08800
C696        C  0.23030755  0.03892945  0.19808504    -0.01800
H697        H  0.29194107  0.96574029  0.19419370     0.05600
C698        C  0.29357891  0.00331903  0.15035589     0.21100
H699        H  0.21345169  0.56016894  0.19941976     0.10800
C700        C  0.28150722  0.48274060  0.12835474    -0.15200
C701        C  0.30388911  0.47756437  0.10722971     0.03800
C702        C  0.33899061  0.99370328  0.10790425    -0.10500
C703        C  0.35044992  0.01370116  0.13048818    -0.00500
C704        C  0.32818335  0.01833805  0.15162487    -0.05700
H705        H  0.25530044  0.46992004  0.12788135     0.06800
H706        H  0.37684292  0.02600812  0.13169723     0.10200
Br707      Br  0.24204480  0.56393327  0.14565910    -0.05400
Br708      Br  0.27040799  0.96545009  0.24856520    -0.02300
Br709      Br  0.28683852  0.44564777  0.07938349     0.00500
Br710      Br  0.34617809  0.04504753  0.18209205    -0.03800
C711        C  0.05777759  0.98438419  0.42545841    -0.11200
C712        C  0.04921896  0.96579121  0.40145775     0.04200
C713        C  0.07379021  0.96499099  0.38134480    -0.11800
C714        C  0.10717210  0.98232258  0.38435294     0.19100
C715        C  0.11559480  0.49982242  0.40793866    -0.08800
C716        C  0.09110078  0.50065288  0.42830001    -0.01800
H717        H  0.06677563  0.95067361  0.36307444     0.05600
C718        C  0.13117001  0.98158159  0.36158876     0.21100
H719        H  0.09821121  0.51549237  0.44630745     0.10800
C720        C  0.12406796  0.50023490  0.33922592    -0.15200
C721        C  0.14065227  0.49522211  0.31509641     0.03800
C722        C  0.16544966  0.97076031  0.31305322    -0.10500
C723        C  0.17298462  0.95220718  0.33595169    -0.00500
C724        C  0.15627224  0.95755665  0.36005049    -0.05700
H725        H  0.10431317  0.51830173  0.34023241     0.06800
H726        H  0.19108034  0.93248661  0.33478749     0.10200
Br727      Br  0.16027548  0.52548915  0.41279717    -0.05400
Br728      Br  0.50598192  0.93592092  0.39597038    -0.02300
Br729      Br  0.12542953  0.52051713  0.28552096     0.00500
Br730      Br  0.16634633  0.92944310  0.38968903    -0.03800
C731        C  0.05924974  0.99140836  0.10753431    -0.11200
C732        C  0.04954570  0.98675891  0.13447823     0.04200
C733        C  0.07510029  0.98657423  0.15426169    -0.11800
C734        C  0.11055615  0.99087740  0.14834335     0.19100
C735        C  0.12071668  0.49484828  0.12145573    -0.08800
C736        C  0.09534915  0.49598674  0.10143931    -0.01800
H737        H  0.06715689  0.98225468  0.17461033     0.05600
C738        C  0.13590221  0.98825583  0.17046390     0.21100
H739        H  0.10384113  0.49972227  0.08117811     0.10800
C740        C  0.15709807  0.96069105  0.17050339    -0.15200
C741        C  0.17530679  0.95272996  0.19348617     0.03800
C742        C  0.17172661  0.97193591  0.21731973    -0.10500
C743        C  0.15250917  0.50076440  0.21634142    -0.00500
C744        C  0.13509393  0.50910046  0.19321425    -0.05700
H745        H  0.15814827  0.94416283  0.15299883     0.06800
H746        H  0.15002141  0.51654496  0.23392886     0.10200
Br747      Br  0.16859301  0.49976884  0.11132204    -0.05400
Br748      Br  0.50221416  0.97795339  0.14632067    -0.02300
Br749      Br  0.20434207  0.91518111  0.19108082     0.00500
Br750      Br  0.10958716  0.54938663  0.19434351    -0.03800
N751        N  0.18971283  0.97855952  0.76613097    -0.02700
C752        C  0.18180391  0.45847262  0.74386111    -0.00100
C753        C  0.16937262  0.42509672  0.75103204    -0.23000
C754        C  0.16665631  0.42512107  0.77807454    -0.23200
C755        C  0.17720677  0.45851521  0.78700929    -0.00200
H756        H  0.15802344  0.40443372  0.73794968     0.13500
H757        H  0.15356258  0.40436932  0.78953693     0.13600
N758        N  0.20972871  0.01184758  0.76757122    -0.02700
C759        C  0.21738707  0.03218178  0.78978768    -0.00100
C760        C  0.23107070  0.06508477  0.78241625    -0.23000
C761        C  0.23430615  0.06448163  0.75545153    -0.23200
C762        C  0.22286061  0.03118039  0.74680200    -0.00200
H763        H  0.24297091  0.08559254  0.79539867     0.13500
H764        H  0.24836072  0.08460585  0.74394440     0.13600
N765        N  0.38095514  0.71123415  0.76451027    -0.02700
C766        C  0.37108980  0.69050061  0.74281950    -0.00100
C767        C  0.35390378  0.65921566  0.75036520    -0.23000
C768        C  0.35387093  0.65933998  0.77727543    -0.23200
C769        C  0.37136193  0.69053189  0.78568713    -0.00200
H770        H  0.34626514  0.63675105  0.73770707     0.13500
H771        H  0.34592758  0.63711217  0.78942984     0.13600
N772        N  0.37940342  0.74827513  0.76477953    -0.02700
C773        C  0.36698599  0.76605529  0.78588582    -0.00100
C774        C  0.34903090  0.79318735  0.77749114    -0.23000
C775        C  0.35078462  0.79348851  0.75065194    -0.23200
C776        C  0.36994748  0.76667441  0.74315236    -0.00200
H777        H  0.33939324  0.81334797  0.78979154     0.13500
H778        H  0.34247729  0.81373183  0.73808222     0.13600
O779        O  0.04475060  0.99153332  0.56127253    -0.74600
O780        O  0.50158760  0.99186880  0.59121461    -0.53500
C781        C  0.53371347  0.99194775  0.58516750     0.79200
O782        O  0.44448959  0.58475693  0.97115595    -0.59200
O783        O  0.44559912  0.54128862  0.94035164    -0.52200
C784        C  0.44353702  0.57350951  0.94693645     0.71200
O785        O  0.45263753  0.58714520  0.55992173    -0.73700
O786        O  0.44984353  0.54443216  0.59058795    -0.54300
C787        C  0.45095488  0.57667205  0.58398784     0.77200
O788        O  0.04355740  0.98629013  0.97144417    -0.58900
O789        O  0.49963445  0.98767598  0.94036436    -0.52000
C790        C  0.53176361  0.98645437  0.94689119     0.73800
Zr791      Zr  0.51976949  0.99016234  0.51598402     2.54700
O792        O  0.06511580  0.53788026  0.51586447    -0.79400
O793        O  0.05961669  0.94473779  0.51555786    -0.92800
Zr794      Zr  0.45137424  0.56100790  0.51556126     2.64700
O795        O  0.50067541  0.60513752  0.51325322    -0.97800
O796        O  0.40904563  0.60376898  0.51756700    -0.79900
O797        O  0.48651634  0.52682508  0.54157624    -0.83200
O798        O  0.48632102  0.52613122  0.99002086    -2.17900
O799        O  0.43782692  0.89010569  0.97072393    -0.66600
O800        O  0.44079008  0.93317657  0.94023775    -0.51200
C801        C  0.43797106  0.90083567  0.94664248     0.72200
O802        O  0.35108971  0.98868893  0.56167984    -0.59500
O803        O  0.39536303  0.99041010  0.59204569    -0.51500
C804        C  0.36307425  0.99022696  0.58571478     0.74000
O805        O  0.34936976  0.98777862  0.97181434    -0.70900
O806        O  0.39207036  0.98863681  0.94076170    -0.49600
C807        C  0.36019551  0.98881118  0.94773424     0.75300
O808        O  0.43771302  0.89123108  0.56104498    -0.66200
O809        O  0.44137681  0.93564742  0.59160457    -0.53400
C810        C  0.43806426  0.90294240  0.58516570     0.73700
Zr811      Zr  0.44126364  0.91482755  0.51613469     2.77500
O812        O  0.39193183  0.87048262  0.51665538    -0.97000
O813        O  0.48290679  0.87138307  0.51645784    -0.77800
Zr814      Zr  0.37368771  0.98539393  0.51640510     2.70100
O815        O  0.33191094  0.93390708  0.51617363    -0.79100
O816        O  0.32753003  0.52442397  0.51862806    -0.98100
Zr817      Zr  0.44764694  0.98951748  0.56652858     2.21500
Zr818      Zr  0.44616239  0.98764736  0.96520006     2.11100
O819        O  0.40686193  0.94956000  0.99022227    -2.46800
O820        O  0.40748635  0.95025677  0.54219631    -0.78800
O821        O  0.48065349  0.95157825  0.99027203    -0.71000
O822        O  0.41250546  0.52440767  0.54127929    -2.32000
O823        O  0.48155307  0.95245316  0.54162158    -2.28200
O824        O  0.41132047  0.52285989  0.99082504    -0.72800
H825        H  0.50111358  0.54063247  0.97840043     0.79200
H826        H  0.39947605  0.53870509  0.55270824     0.80300
H827        H  0.39138007  0.93505890  0.97872252     0.82500
H828        H  0.49462922  0.93882149  0.55316768     0.80100
H829        H  0.39088288  0.59379495  0.52972900     0.43100
H830        H  0.33437735  0.54270947  0.50558937     0.42100
H831        H  0.33977179  0.91947965  0.53072922     0.41800
H832        H  0.37803040  0.87474238  0.50062401     0.39700
H833        H  0.50242321  0.88155802  0.50562176     0.42900
H834        H  0.05336748  0.93036447  0.53122704     0.37600
H835        H  0.08565940  0.52839511  0.52383055     0.43800
H836        H  0.49309130  0.62621938  0.01457340     0.40200
H837        H  0.40199716  0.84834511  0.51270049     0.45100
H838        H  0.08258243  0.95710119  0.52017100     0.43800
H839        H  0.51087189  0.60646491  0.53139661     0.44000
H840        H  0.30683786  0.51093826  0.51059253     0.44300
C841        C  0.43297659  0.87440799  0.92462823    -0.11200
C842        C  0.43784728  0.83864403  0.92779986     0.04200
C843        C  0.42968552  0.81474955  0.90683805    -0.11800
C844        C  0.41735301  0.82576036  0.88248374     0.19100
C845        C  0.41379861  0.86132899  0.87885562    -0.08800
C846        C  0.42144708  0.88516886  0.89972980    -0.01800
H847        H  0.43286463  0.78741168  0.90956015     0.05600
C848        C  0.40683475  0.80017424  0.86107048     0.21100
H849        H  0.41754810  0.91223376  0.89649616     0.10800
C850        C  0.37168680  0.78778619  0.85851209    -0.15200
C851        C  0.35879473  0.77178727  0.83486156     0.03800
C852        C  0.38122636  0.76816507  0.81327748    -0.10500
C853        C  0.41700916  0.77716936  0.81699028    -0.00500
C854        C  0.42992945  0.79292038  0.84079252    -0.05700
H855        H  0.35378949  0.79298823  0.87415818     0.06800
H856        H  0.43450856  0.77501621  0.80057244     0.10200
Br857      Br  0.39778248  0.87846047  0.84576754    -0.05400
Br858      Br  0.45652337  0.82027805  0.95953970    -0.02300
Br859      Br  0.30969222  0.75885624  0.83183916     0.00500
Br860      Br  0.47860322  0.80763037  0.84375785    -0.03800
C861        C  0.38601059  0.76874023  0.71651263    -0.11200
C862        C  0.42120731  0.78152880  0.71358108     0.04200
C863        C  0.43206801  0.79864520  0.69023518    -0.11800
C864        C  0.40818018  0.80376242  0.66981966     0.19100
C865        C  0.37388213  0.78823257  0.67173652    -0.08800
C866        C  0.36324722  0.77056322  0.69472796    -0.01800
H867        H  0.45854696  0.81049709  0.68894786     0.05600
C868        C  0.41779436  0.82931122  0.64872563     0.21100
H869        H  0.33597670  0.76170823  0.69681716     0.11600
C870        C  0.43405832  0.81887442  0.62563014    -0.15200
C871        C  0.44147541  0.84223177  0.60482644     0.03800
C872        C  0.43292465  0.87718745  0.60708075    -0.10500
C873        C  0.41747944  0.88756270  0.63073903    -0.00500
C874        C  0.40963845  0.86402019  0.65121196    -0.05700
H875        H  0.44051939  0.79224156  0.62360359     0.06800
H876        H  0.41036102  0.91392509  0.63307500     0.10200
Br877      Br  0.33942820  0.79471090  0.64507184    -0.05400
Br878      Br  0.45411971  0.78146448  0.74227120    -0.02300
Br879      Br  0.46394640  0.82439662  0.57440889     0.00500
Br880      Br  0.38656364  0.88013365  0.68195205    -0.03800
C881        C  0.43862163  0.59879806  0.92501518    -0.11200
C882        C  0.43684726  0.63524245  0.92926938     0.04200
C883        C  0.42908364  0.65654221  0.90800820    -0.11800
C884        C  0.42344544  0.64275119  0.88227207     0.19100
C885        C  0.42657883  0.60711670  0.87770067    -0.08800
C886        C  0.43391389  0.58564060  0.89878822    -0.01800
H887        H  0.42687149  0.68401255  0.91165159     0.05600
C888        C  0.41163559  0.66478936  0.86063684     0.21100
H889        H  0.43517166  0.55817979  0.89451861     0.10800
C890        C  0.43490513  0.67698580  0.84088776    -0.15200
C891        C  0.42279461  0.69037714  0.81710268     0.03800
C892        C  0.38681487  0.69196074  0.81291068    -0.10500
C893        C  0.36417747  0.68310677  0.83395462    -0.00500
C894        C  0.37619990  0.66939590  0.85749159    -0.05700
H895        H  0.46226035  0.67363796  0.84313520     0.06800
H896        H  0.33643400  0.68350202  0.83098556     0.10200
Br897      Br  0.41967191  0.58624184  0.84296160    -0.05400
Br898      Br  0.44445510  0.65861140  0.96311911    -0.02300
Br899      Br  0.45600511  0.70129202  0.78981969     0.00500
Br900      Br  0.34256046  0.65280092  0.88319798    -0.03800
C901        C  0.44842580  0.60299408  0.60575987    -0.11200
C902        C  0.44132453  0.63799683  0.60131552     0.04200
C903        C  0.43409653  0.65952979  0.62284018    -0.11800
C904        C  0.43358323  0.64715785  0.64882200     0.19100
C905        C  0.44160714  0.61291269  0.65337706    -0.08800
C906        C  0.44952173  0.59156754  0.63213714    -0.01800
H907        H  0.42735792  0.68569113  0.61919768     0.05600
C908        C  0.41958548  0.66798592  0.67039444     0.21100
H909        H  0.45479033  0.56511789  0.63638145     0.10800
C910        C  0.38375299  0.67073076  0.67059934    -0.15200
C911        C  0.36773775  0.68212611  0.69341861     0.03800
C912        C  0.38775610  0.69165465  0.71646444    -0.10500
C913        C  0.42409163  0.69244132  0.71520848    -0.00500
C914        C  0.44008696  0.68063639  0.69238132    -0.05700
H915        H  0.36779686  0.66132677  0.65367819     0.06800
H916        H  0.43984086  0.69932340  0.73269612     0.10200
Br917      Br  0.43827912  0.59243200  0.68785955    -0.05400
Br918      Br  0.43828782  0.65828611  0.56682916    -0.02300
Br919      Br  0.31796714  0.68058517  0.69301553     0.00500
Br920      Br  0.48953873  0.67928181  0.69283801    -0.03800
C921        C  0.22708737  0.01942348  0.81629578    -0.11200
C922        C  0.22285039  0.03907159  0.83978163     0.04200
C923        C  0.23968270  0.03087677  0.86328480    -0.11800
C924        C  0.26063369  0.00318035  0.86383896     0.19100
C925        C  0.26253474  0.98187632  0.84114781    -0.08800
C926        C  0.24616661  0.99029739  0.81763948    -0.01800
H927        H  0.23740118  0.54721856  0.88118623     0.05600
C928        C  0.28486766  0.00037079  0.88632097     0.21100
H929        H  0.24950965  0.97466102  0.80014735     0.10800
C930        C  0.27888208  0.97349655  0.90463410    -0.15200
C931        C  0.30336911  0.96896949  0.92467472     0.03800
C932        C  0.33419286  0.99169631  0.92654846    -0.10500
C933        C  0.33991369  0.51596828  0.90810701    -0.00500
C934        C  0.31572567  0.52107679  0.88816581    -0.05700
H935        H  0.25556601  0.95557097  0.90291213     0.06800
H936        H  0.36411379  0.53269496  0.90903128     0.10200
Br937      Br  0.28989684  0.94293389  0.84064276    -0.05400
Br938      Br  0.19467748  0.57796742  0.84118989    -0.02300
Br939      Br  0.29498625  0.92980568  0.94756648     0.00500
Br940      Br  0.32772768  0.55632426  0.86250189    -0.03800
C941        C  0.23544619  0.01833734  0.72100223    -0.11200
C942        C  0.25770624  0.99137487  0.71922342     0.04200
C943        C  0.27433506  0.98515003  0.69538891    -0.11800
C944        C  0.27032128  0.00601349  0.67334107     0.19100
C945        C  0.24753588  0.03222735  0.67464222    -0.08800
C946        C  0.23015031  0.03802557  0.69826837    -0.01800
H947        H  0.29225341  0.96523010  0.69450523     0.05600
C948        C  0.29345454  0.00263324  0.65056434     0.21100
H949        H  0.21307104  0.55991907  0.69964507     0.10800
C950        C  0.28153572  0.48416084  0.62872703    -0.15200
C951        C  0.30361409  0.47888725  0.60744485     0.03800
C952        C  0.33847812  0.99345490  0.60781538    -0.10500
C953        C  0.35016118  0.01310767  0.63051076    -0.00500
C954        C  0.32812391  0.01745296  0.65182139    -0.05700
H955        H  0.25506289  0.47201895  0.62817452     0.06800
H956        H  0.37659746  0.02530149  0.63171176     0.10200
Br957      Br  0.24264113  0.56457504  0.64630542    -0.05400
Br958      Br  0.27028011  0.96455655  0.74879381    -0.02300
Br959      Br  0.28553424  0.44803992  0.57926368     0.00500
Br960      Br  0.34660200  0.04340126  0.68250416    -0.03800
C961        C  0.05770914  0.98363466  0.92560816    -0.11200
C962        C  0.04959240  0.96383112  0.90209294     0.04200
C963        C  0.07417644  0.96283473  0.88200759    -0.11800
C964        C  0.10710095  0.98124814  0.88458662     0.19100
C965        C  0.11522703  0.50032055  0.90796481    -0.08800
C966        C  0.09069606  0.50098233  0.92828793    -0.01800
H967        H  0.06749706  0.94762932  0.86407953     0.05600
C968        C  0.13095318  0.98070345  0.86176536     0.21100
H969        H  0.09771226  0.51579973  0.94632214     0.10800
C970        C  0.12433328  0.50114618  0.83947049    -0.15200
C971        C  0.14088043  0.49602092  0.81535448     0.03800
C972        C  0.16505174  0.97062374  0.81313279    -0.10500
C973        C  0.17234137  0.95141678  0.83573219    -0.00500
C974        C  0.15572270  0.95639807  0.85988658    -0.05700
H975        H  0.10487124  0.51952212  0.84052468     0.06800
H976        H  0.19008111  0.93139449  0.83424669     0.10200
Br977      Br  0.15981617  0.52616109  0.91286793    -0.05400
Br978      Br  0.50525473  0.93834736  0.89513610    -0.02300
Br979      Br  0.12628154  0.52183811  0.78583822     0.00500
Br980      Br  0.16554021  0.92751773  0.88912183    -0.03800
C981        C  0.05950052  0.99180160  0.60760712    -0.11200
C982        C  0.04963304  0.98759151  0.63457368     0.04200
C983        C  0.07506104  0.98666857  0.65436512    -0.11800
C984        C  0.11053818  0.99014254  0.64848317     0.19100
C985        C  0.12031614  0.49429251  0.62189202    -0.08800
C986        C  0.09498977  0.49487980  0.60181390    -0.01800
H987        H  0.06698137  0.98263070  0.67471366     0.05600
C988        C  0.13576850  0.98745010  0.67065483     0.21100
H989        H  0.10352550  0.49877160  0.58157916     0.10800
C990        C  0.15706714  0.95995530  0.67067874    -0.15200
C991        C  0.17541761  0.95216211  0.69361855     0.03800
C992        C  0.17184725  0.97146137  0.71739376    -0.10500
C993        C  0.15241769  0.50052987  0.71647240    -0.00500
C994        C  0.13491271  0.50869686  0.69336031    -0.05700
H995        H  0.15804857  0.94331905  0.65322868     0.06800
H996        H  0.14996946  0.51641402  0.73401114     0.10200
Br997      Br  0.16824909  0.50077851  0.61204567    -0.05400
Br998      Br  0.50264301  0.97711144  0.64609507    -0.02300
Br999      Br  0.20425860  0.91442559  0.69139460     0.00500
Br1000     Br  0.10941154  0.54897909  0.69431856    -0.03800
N1001       N  0.68980111  0.47875522  0.26609425    -0.02700
C1002       C  0.68252117  0.95872837  0.24374743    -0.00100
C1003       C  0.67024929  0.92529060  0.25086094    -0.23000
C1004       C  0.66725896  0.92531480  0.27789004    -0.23200
C1005       C  0.67758447  0.95873991  0.28686803    -0.00200
H1006       H  0.65913168  0.90458235  0.23772141     0.13500
H1007       H  0.65420723  0.90449106  0.28930460     0.13600
N1008       N  0.70973630  0.51206911  0.26761805    -0.02700
C1009       C  0.71722165  0.53227835  0.28991833    -0.00100
C1010       C  0.73073466  0.56528812  0.28267853    -0.23000
C1011       C  0.73413819  0.56483226  0.25570310    -0.23200
C1012       C  0.72290663  0.53152266  0.24691108    -0.00200
H1013       H  0.74239951  0.58579298  0.29577095     0.13500
H1014       H  0.74812561  0.58509999  0.24429169     0.13600
N1015       N  0.88148697  0.21135493  0.26465487    -0.02700
C1016       C  0.87200319  0.19021462  0.24312358    -0.00100
C1017       C  0.85526848  0.15880438  0.25082690    -0.23000
C1018       C  0.85496108  0.15932972  0.27772563    -0.23200
C1019       C  0.87189801  0.19086792  0.28596672    -0.00200
H1020       H  0.84792660  0.13615202  0.23828830     0.13500
H1021       H  0.84720464  0.13720518  0.29003760     0.13600
N1022       N  0.87982652  0.24837964  0.26452067    -0.02700
C1023       C  0.86784337  0.26657963  0.28556638    -0.00100
C1024       C  0.84955171  0.29342288  0.27711904    -0.23000
C1025       C  0.85048579  0.29303331  0.25025152    -0.23200
C1026       C  0.86971570  0.26624483  0.24278994    -0.00200
H1027       H  0.84000035  0.31371691  0.28933126     0.13500
H1028       H  0.84173094  0.31294852  0.23757572     0.13600
O1029       O  0.54450896  0.49092318  0.06121577    -0.74600
O1030       O  0.00152529  0.49234481  0.09113525    -0.53500
C1031       C  0.03358735  0.49220907  0.08503134     0.79200
O1032       O  0.94464797  0.08476450  0.47124006    -0.59200
O1033       O  0.94551327  0.04134419  0.44036766    -0.52200
C1034       C  0.94353821  0.07356810  0.44700464     0.71200
O1035       O  0.95162133  0.08728253  0.05953087    -0.73700
O1036       O  0.94940949  0.04460460  0.09024233    -0.54300
C1037       C  0.95014127  0.07683986  0.08360752     0.77200
O1038       O  0.54321819  0.48545711  0.47141238    -0.58900
O1039       O  0.99958690  0.48657746  0.44055507    -0.52000
C1040       C  0.03179302  0.48560018  0.44704957     0.73800
Zr1041     Zr  0.01952927  0.49000209  0.01582149     2.54700
O1042       O  0.56634341  0.03742939  0.01638526    -0.79400
O1043       O  0.55993943  0.44511827  0.01502554    -0.92800
Zr1044     Zr  0.95166476  0.06069687  0.01540873     2.64700
O1045       O  0.00301421  0.10243628  0.01415323    -0.97800
O1046       O  0.91120811  0.10518237  0.01705004    -0.79900
O1047       O  0.98645804  0.02649288  0.04160498    -0.83200
O1048       O  0.98637644  0.02608528  0.49012580    -2.17900
O1049       O  0.93675951  0.38947982  0.47112899    -0.66600
O1050       O  0.94000096  0.43233316  0.44046146    -0.51200
C1051       C  0.93691046  0.40003523  0.44701105     0.72200
O1052       O  0.85088798  0.48703020  0.06186440    -0.59500
O1053       O  0.89532725  0.48937069  0.09212089    -0.51500
C1054       C  0.86297763  0.48884623  0.08585597     0.74000
O1055       O  0.84872423  0.48644290  0.47185647    -0.70900
O1056       O  0.89151066  0.48752781  0.44084998    -0.49600
C1057       C  0.85958115  0.48743954  0.44778774     0.75300
O1058       O  0.93801158  0.39091172  0.06095379    -0.66200
O1059       O  0.94258674  0.43530686  0.09157389    -0.53400
C1060       C  0.93890369  0.40264614  0.08509090     0.73700
Zr1061     Zr  0.94165187  0.41440536  0.01599079     2.77500
O1062       O  0.89357146  0.36862352  0.01608662    -0.97000
O1063       O  0.98534366  0.37303126  0.01583890    -0.77800
Zr1064     Zr  0.87344698  0.48444881  0.01660762     2.70100
O1065       O  0.83082385  0.43361234  0.01592966    -0.79100
O1066       O  0.82726989  0.02351528  0.01764496    -0.98100
Zr1067     Zr  0.94762238  0.48899706  0.06647142     2.21500
Zr1068     Zr  0.94580099  0.48701018  0.46520437     2.11100
O1069       O  0.90656141  0.44909099  0.49040775    -2.46800
O1070       O  0.90764279  0.44946571  0.04219963    -0.78800
O1071       O  0.98029230  0.45111634  0.49036332    -0.71000
O1072       O  0.91255243  0.02413270  0.04106353    -2.32000
O1073       O  0.98167421  0.45213231  0.04155147    -2.28200
O1074       O  0.91149160  0.02296569  0.49071066    -0.72800
H1075       H  0.00116031  0.04057637  0.47849744     0.79200
H1076       H  0.89936760  0.03846297  0.05235041     0.80300
H1077       H  0.89106396  0.43449627  0.47898036     0.82500
H1078       H  0.99483761  0.43859069  0.05310717     0.80100
H1079       H  0.88833088  0.09207776  0.02011363     0.43100
H1080       H  0.83279766  0.04032579  0.00327708     0.42100
H1081       H  0.83935880  0.41801917  0.02944367     0.41800
H1082       H  0.87967862  0.37248327  0.99996027     0.39700
H1083       H  0.00262305  0.38230484  0.00273867     0.42900
H1084       H  0.55367339  0.43036552  0.03048889     0.37600
H1085       H  0.58620062  0.02742741  0.00789910     0.43800
H1086       H  0.99315696  0.12599506  0.51196924     0.40200
H1087       H  0.90439345  0.34688964  0.01220024     0.45100
H1088       H  0.58279761  0.45755373  0.01986793     0.43800
H1089       H  0.01556161  0.09896610  0.03099778     0.44000
H1090       H  0.80624321  0.00896025  0.01123630     0.44300
C1091       C  0.93182691  0.37344237  0.42513198    -0.11200
C1092       C  0.93656254  0.33766731  0.42847730     0.04200
C1093       C  0.92889622  0.31373557  0.40745527    -0.11800
C1094       C  0.91727142  0.32475359  0.38288077     0.19100
C1095       C  0.91372175  0.36030121  0.37915960    -0.08800
C1096       C  0.92075456  0.38414019  0.40009855    -0.01800
H1097       H  0.93197762  0.28639721  0.41028148     0.05600
C1098       C  0.90716824  0.29924008  0.36134211     0.21100
H1099       H  0.91691987  0.41119519  0.39675317     0.10800
C1100       C  0.87203342  0.28698691  0.35846354    -0.15200
C1101       C  0.85928538  0.27183316  0.33450052     0.03800
C1102       C  0.88191726  0.26857182  0.31299823    -0.10500
C1103       C  0.91769524  0.27739616  0.31696024    -0.00500
C1104       C  0.93042975  0.29257503  0.34102091    -0.05700
H1105       H  0.85399310  0.29190174  0.37407944     0.06800
H1106       H  0.93532983  0.27555850  0.30058816     0.10200
Br1107     Br  0.89869806  0.37745404  0.34578522    -0.05400
Br1108     Br  0.95453806  0.31937744  0.46051595    -0.02300
Br1109     Br  0.81009058  0.25971234  0.33099747     0.00500
Br1110     Br  0.97902443  0.30758382  0.34427700    -0.03800
C1111       C  0.88572404  0.26849523  0.21611587    -0.11200
C1112       C  0.92092939  0.28125769  0.21316831     0.04200
C1113       C  0.93182958  0.29820752  0.18977434    -0.11800
C1114       C  0.90793904  0.30348177  0.16940878     0.19100
C1115       C  0.87356135  0.28818130  0.17137952    -0.08800
C1116       C  0.86292952  0.27043467  0.19434617    -0.01800
H1117       H  0.95834155  0.30996243  0.18846042     0.05600
C1118       C  0.91772204  0.32903708  0.14836695     0.21100
H1119       H  0.83564075  0.26167467  0.19645642     0.11600
C1120       C  0.93476318  0.31876088  0.12556948    -0.15200
C1121       C  0.94256354  0.34218128  0.10487299     0.03800
C1122       C  0.93372092  0.37700634  0.10700038    -0.10500
C1123       C  0.91764400  0.38729324  0.13039959    -0.00500
C1124       C  0.90929527  0.36367760  0.15071371    -0.05700
H1125       H  0.94149592  0.29220804  0.12367282     0.06800
H1126       H  0.91030312  0.41359616  0.13258321     0.10200
Br1127     Br  0.83904012  0.29511345  0.14485807    -0.05400
Br1128     Br  0.95376939  0.28174015  0.24194840    -0.02300
Br1129     Br  0.96587008  0.32475139  0.07471098     0.00500
Br1130     Br  0.88510397  0.37961762  0.18096425    -0.03800
C1131       C  0.93849295  0.09896755  0.42517204    -0.11200
C1132       C  0.93630230  0.13531604  0.42963703     0.04200
C1133       C  0.92840259  0.15675067  0.40850527    -0.11800
C1134       C  0.92286477  0.14318460  0.38270608     0.19100
C1135       C  0.92614586  0.10761303  0.37793873    -0.08800
C1136       C  0.93386672  0.08602851  0.39887431    -0.01800
H1137       H  0.92600291  0.18415507  0.41230121     0.05600
C1138       C  0.91139163  0.16548104  0.36111736     0.21100
H1139       H  0.93535307  0.05863791  0.39445987     0.10800
C1140       C  0.93487234  0.17732227  0.34140297    -0.15200
C1141       C  0.92305407  0.19072105  0.31753854     0.03800
C1142       C  0.88716384  0.19268870  0.31323568    -0.10500
C1143       C  0.86434554  0.18427977  0.33425615    -0.00500
C1144       C  0.87607803  0.17058324  0.35789416    -0.05700
H1145       H  0.96213567  0.17360332  0.34371964     0.06800
H1146       H  0.83665216  0.18493289  0.33117937     0.10200
Br1147     Br  0.91859732  0.08694210  0.34317515    -0.05400
Br1148     Br  0.94333361  0.15839721  0.46364368    -0.02300
Br1149     Br  0.95642864  0.20095379  0.29024260     0.00500
Br1150     Br  0.84215426  0.15460205  0.38357876    -0.03800
C1151       C  0.94756114  0.10317127  0.10538239    -0.11200
C1152       C  0.94021393  0.13813019  0.10101429     0.04200
C1153       C  0.93298237  0.15956312  0.12259559    -0.11800
C1154       C  0.93292757  0.14721146  0.14856737     0.19100
C1155       C  0.94144680  0.11311668  0.15306418    -0.08800
C1156       C  0.94918549  0.09181892  0.13174996    -0.01800
H1157       H  0.92602478  0.18566704  0.11902578     0.05600
C1158       C  0.91914062  0.16797175  0.17025606     0.21100
H1159       H  0.95484160  0.06547313  0.13595433     0.10800
C1160       C  0.88326403  0.17037227  0.17089404    -0.15200
C1161       C  0.86768006  0.18195857  0.19383423     0.03800
C1162       C  0.88813311  0.19166828  0.21661388    -0.10500
C1163       C  0.92445330  0.19282394  0.21491622    -0.00500
C1164       C  0.94005144  0.18114977  0.19187197    -0.05700
H1165       H  0.86700557  0.16071060  0.15420409     0.06800
H1166       H  0.94052921  0.19996817  0.23220413     0.10200
Br1167     Br  0.93921248  0.09276587  0.18761148    -0.05400
Br1168     Br  0.93723649  0.15864502  0.06662155    -0.02300
Br1169     Br  0.81792830  0.18064230  0.19401206     0.00500
Br1170     Br  0.98960886  0.18093727  0.19141355    -0.03800
C1171       C  0.72699875  0.51932148  0.31636635    -0.11200
C1172       C  0.72227248  0.53845907  0.34001107     0.04200
C1173       C  0.73891768  0.52999111  0.36354468    -0.11800
C1174       C  0.75998442  0.50236508  0.36399550     0.19100
C1175       C  0.76237175  0.48156061  0.34110410    -0.08800
C1176       C  0.74636625  0.49038534  0.31755299    -0.01800
H1177       H  0.73782972  0.04684581  0.38103536     0.05600
C1178       C  0.78413004  0.49934647  0.38650934     0.21100
H1179       H  0.75009372  0.47512799  0.29994375     0.10800
C1180       C  0.77811922  0.47234894  0.40473267    -0.15200
C1181       C  0.80272774  0.46753832  0.42464600     0.03800
C1182       C  0.83357415  0.49024597  0.42657766    -0.10500
C1183       C  0.84012531  0.01714376  0.40786008    -0.00500
C1184       C  0.81571341  0.02188348  0.38797914    -0.05700
H1185       H  0.75477067  0.45447572  0.40296912     0.06800
H1186       H  0.86384877  0.03457552  0.40904667     0.10200
Br1187     Br  0.78987126  0.44272007  0.34048225    -0.05400
Br1188     Br  0.69493134  0.07769301  0.34116256    -0.02300
Br1189     Br  0.79462314  0.42791546  0.44712385     0.00500
Br1190     Br  0.82646493  0.05810755  0.36282255    -0.03800
C1191       C  0.73560255  0.51882307  0.22104675    -0.11200
C1192       C  0.75766991  0.49168847  0.21916258     0.04200
C1193       C  0.77406455  0.48527263  0.19524773    -0.11800
C1194       C  0.77015437  0.50617932  0.17321150     0.19100
C1195       C  0.74788379  0.53283613  0.17469200    -0.08800
C1196       C  0.73058645  0.53873212  0.19836666    -0.01800
H1197       H  0.79176923  0.46516076  0.19429784     0.05600
C1198       C  0.79316820  0.50252165  0.15036852     0.21100
H1199       H  0.71453754  0.06071947  0.19985812     0.10800
C1200       C  0.78099599  0.98280089  0.12834484    -0.15200
C1201       C  0.80312311  0.97738198  0.10709810     0.03800
C1202       C  0.83839973  0.49229017  0.10792589    -0.10500
C1203       C  0.84977553  0.51305209  0.13013826    -0.00500
C1204       C  0.82757931  0.51808340  0.15123024    -0.05700
H1205       H  0.75458110  0.97050353  0.12788867     0.06800
H1206       H  0.87602997  0.52574985  0.13105176     0.10200
Br1207     Br  0.74381026  0.06524611  0.14645535    -0.05400
Br1208     Br  0.77043753  0.46491797  0.24869368    -0.02300
Br1209     Br  0.78534319  0.94598627  0.07915951     0.00500
Br1210     Br  0.84538812  0.54621466  0.18103598    -0.03800
C1211       C  0.55737944  0.48252180  0.42560191    -0.11200
C1212       C  0.54923626  0.46281319  0.40205139     0.04200
C1213       C  0.57377536  0.46195850  0.38189659    -0.11800
C1214       C  0.60671417  0.48038267  0.38446146     0.19100
C1215       C  0.61590736  0.99951877  0.40820356    -0.08800
C1216       C  0.59136256  0.00037671  0.42851227    -0.01800
H1217       H  0.56705701  0.44683541  0.36393782     0.05600
C1218       C  0.63061558  0.47990295  0.36162741     0.21100
H1219       H  0.59840341  0.01530336  0.44649228     0.10800
C1220       C  0.62443194  0.00057771  0.33962559    -0.15200
C1221       C  0.64094688  0.99576455  0.31543332     0.03800
C1222       C  0.66523235  0.47015620  0.31309755    -0.10500
C1223       C  0.67265001  0.45115053  0.33579296    -0.00500
C1224       C  0.65576086  0.45595956  0.35988649    -0.05700
H1225       H  0.60475593  0.01871566  0.34079274     0.06800
H1226       H  0.69073273  0.43143431  0.33443859     0.10200
Br1227     Br  0.66066912  0.02498580  0.41318606    -0.05400
Br1228     Br  0.00510212  0.43742517  0.39533008    -0.02300
Br1229     Br  0.62587718  0.02146562  0.28601826     0.00500
Br1230     Br  0.66572824  0.42733504  0.38924803    -0.03800
C1231       C  0.55926030  0.49138356  0.10753107    -0.11200
C1232       C  0.54936332  0.48559222  0.13432672     0.04200
C1233       C  0.57479325  0.48525245  0.15419139    -0.11800
C1234       C  0.61027130  0.49021236  0.14843371     0.19100
C1235       C  0.62053208  0.99529806  0.12216721    -0.08800
C1236       C  0.59529490  0.99607550  0.10203985    -0.01800
H1237       H  0.56676821  0.48024975  0.17443828     0.05600
C1238       C  0.63556496  0.48762621  0.17057089     0.21100
H1239       H  0.60390659  0.00019240  0.08184717     0.10800
C1240       C  0.65692164  0.46020780  0.17055735    -0.15200
C1241       C  0.67533500  0.45242786  0.19347856     0.03800
C1242       C  0.67182222  0.47169385  0.21729920    -0.10500
C1243       C  0.65262367  0.00068470  0.21674095    -0.00500
C1244       C  0.63482768  0.00888469  0.19378469    -0.05700
H1245       H  0.65795406  0.44366315  0.15305845     0.06800
H1246       H  0.65019236  0.01637648  0.23438385     0.10200
Br1247     Br  0.66850083  0.00163610  0.11239131    -0.05400
Br1248     Br  0.00256106  0.47872666  0.14613707    -0.02300
Br1249     Br  0.70436210  0.41487210  0.19105240     0.00500
Br1250     Br  0.60886238  0.04881957  0.19523110    -0.03800
N1251       N  0.68969273  0.47862738  0.76603146    -0.02700
C1252       C  0.68245265  0.95864615  0.74377794    -0.00100
C1253       C  0.67056190  0.92516886  0.75106041    -0.23000
C1254       C  0.66781101  0.92530605  0.77812931    -0.23200
C1255       C  0.67782676  0.95885811  0.78698368    -0.00200
H1256       H  0.65959417  0.90427269  0.73803066     0.13500
H1257       H  0.65506890  0.90442447  0.78965613     0.13600
N1258       N  0.70923215  0.51215092  0.76766750    -0.02700
C1259       C  0.71656835  0.53235075  0.79001450    -0.00100
C1260       C  0.73007598  0.56538557  0.78283071    -0.23000
C1261       C  0.73356367  0.56500860  0.75587411    -0.23200
C1262       C  0.72238865  0.53172390  0.74702278    -0.00200
H1263       H  0.74171859  0.58585942  0.79596086     0.13500
H1264       H  0.74758638  0.58530917  0.74451560     0.13600
N1265       N  0.88050549  0.21212706  0.76491806    -0.02700
C1266       C  0.87016025  0.19143955  0.74333089    -0.00100
C1267       C  0.85186169  0.16077588  0.75097657    -0.23000
C1268       C  0.85168200  0.16115313  0.77788229    -0.23200
C1269       C  0.87031630  0.19179899  0.78618925    -0.00200
H1270       H  0.84353125  0.13839406  0.73842613     0.13500
H1271       H  0.84299800  0.13920874  0.79009978     0.13600
N1272       N  0.87922331  0.24919358  0.76495239    -0.02700
C1273       C  0.86705444  0.26722521  0.78598695    -0.00100
C1274       C  0.84929846  0.29447734  0.77757100    -0.23000
C1275       C  0.85088673  0.29455085  0.75071645    -0.23200
C1276       C  0.86980686  0.26751469  0.74326669    -0.00200
H1277       H  0.83979353  0.31473944  0.78984293     0.13500
H1278       H  0.84259964  0.31473626  0.73808143     0.13600
O1279       O  0.54409612  0.49015788  0.56126006    -0.74600
O1280       O  0.00127636  0.49105833  0.59131859    -0.53500
C1281       C  0.03334052  0.49066922  0.58527590     0.79200
O1282       O  0.94522308  0.08418724  0.97090614    -0.59200
O1283       O  0.94533137  0.04055119  0.94013452    -0.52200
C1284       C  0.94376598  0.07285119  0.94670149     0.71200
O1285       O  0.95105549  0.08739278  0.55998728    -0.73700
O1286       O  0.94960738  0.04460995  0.59058365    -0.54300
C1287       C  0.94976770  0.07683983  0.58406428     0.77200
O1288       O  0.54373636  0.48765279  0.97123579    -0.58900
O1289       O  0.99925512  0.48685996  0.94036451    -0.52000
C1290       C  0.03142447  0.48577105  0.94689126     0.73800
Zr1291     Zr  0.01970179  0.48954069  0.51598578     2.54700
O1292       O  0.56579014  0.03794450  0.51541536    -0.79400
O1293       O  0.56082087  0.44598419  0.51652714    -0.92800
Zr1294     Zr  0.95158894  0.06114748  0.51564154     2.64700
O1295       O  0.00265175  0.10317187  0.51362525    -0.97800
O1296       O  0.91093931  0.10541837  0.51790085    -0.79900
O1297       O  0.98679391  0.02706452  0.54161642    -0.83200
O1298       O  0.98626277  0.02543482  0.98995140    -2.17900
O1299       O  0.93777626  0.38939758  0.97102429    -0.66600
O1300       O  0.94030453  0.43242222  0.94048594    -0.51200
C1301       C  0.93771096  0.40010809  0.94695318     0.72200
O1302       O  0.85055119  0.48788125  0.56167266    -0.59500
O1303       O  0.89491023  0.48987679  0.59197034    -0.51500
C1304       C  0.86256999  0.48959182  0.58569014     0.74000
O1305       O  0.84850491  0.48671595  0.97207248    -0.70900
O1306       O  0.89112007  0.48790778  0.94093817    -0.49600
C1307       C  0.85923321  0.48796467  0.94798184     0.75300
O1308       O  0.93766238  0.39113508  0.56113539    -0.66200
O1309       O  0.94159885  0.43540170  0.59180428    -0.53400
C1310       C  0.93821268  0.40276388  0.58528258     0.73700
Zr1311     Zr  0.94130850  0.41442647  0.51612942     2.77500
O1312       O  0.89421684  0.36766658  0.51686925    -0.97000
O1313       O  0.98489637  0.37294669  0.51590483    -0.77800
Zr1314     Zr  0.87356968  0.48514400  0.51653212     2.70100
O1315       O  0.83045846  0.43475368  0.51620020    -0.79100
O1316       O  0.82779725  0.02355311  0.51802074    -0.98100
Zr1317     Zr  0.94747408  0.48892346  0.56659930     2.21500
Zr1318     Zr  0.94557667  0.48711586  0.96509011     2.11100
O1319       O  0.90666400  0.44884600  0.99027975    -2.46800
O1320       O  0.90732629  0.44974618  0.54216659    -0.78800
O1321       O  0.98033214  0.45140825  0.99019294    -0.71000
O1322       O  0.91275104  0.02416597  0.54112245    -2.32000
O1323       O  0.98149081  0.45190815  0.54168820    -2.28200
O1324       O  0.91148835  0.02258205  0.99058415    -0.72800
H1325       H  0.00111421  0.03984591  0.97828834     0.79200
H1326       H  0.89948319  0.03838137  0.55242843     0.80300
H1327       H  0.89125237  0.43421645  0.97882536     0.82500
H1328       H  0.99454686  0.43820621  0.55320623     0.80100
H1329       H  0.88778340  0.09202242  0.51838181     0.43100
H1330       H  0.83337578  0.04048837  0.50374794     0.42100
H1331       H  0.84351173  0.41511603  0.52158515     0.41800
H1332       H  0.88048454  0.37045551  0.50047273     0.39700
H1333       H  0.00708764  0.38728610  0.51285128     0.42900
H1334       H  0.55475650  0.43163662  0.53225213     0.37600
H1335       H  0.58571479  0.02888351  0.52461778     0.43800
H1336       H  0.99394265  0.12543283  0.01645231     0.40200
H1337       H  0.90566419  0.34612065  0.51368941     0.45100
H1338       H  0.58330621  0.45920841  0.52130896     0.43800
H1339       H  0.01285916  0.10365918  0.53175250     0.44000
H1340       H  0.80673916  0.00911575  0.51153474     0.44300
C1341       C  0.93275175  0.37371074  0.92499311    -0.11200
C1342       C  0.93809484  0.33804972  0.92806250     0.04200
C1343       C  0.93013841  0.31421977  0.90704347    -0.11800
C1344       C  0.91747485  0.32524410  0.88280248     0.19100
C1345       C  0.91341762  0.36072461  0.87930277    -0.08800
C1346       C  0.92087894  0.38446834  0.90021151    -0.01800
H1347       H  0.93366371  0.28693433  0.90964459     0.05600
C1348       C  0.90693150  0.29976016  0.86140380     0.21100
H1349       H  0.91659422  0.41146316  0.89708506     0.10800
C1350       C  0.87169650  0.28779456  0.85874794    -0.15200
C1351       C  0.85867297  0.27247529  0.83492781     0.03800
C1352       C  0.88113191  0.26889436  0.81337253    -0.10500
C1353       C  0.91698340  0.27731470  0.81717539    -0.00500
C1354       C  0.92999448  0.29262981  0.84108345    -0.05700
H1355       H  0.85383903  0.29301328  0.87441916     0.06800
H1356       H  0.93447991  0.27515334  0.80074888     0.10200
Br1357     Br  0.89703785  0.37792830  0.84634842    -0.05400
Br1358     Br  0.95704020  0.31977752  0.95974295    -0.02300
Br1359     Br  0.80943097  0.26056548  0.83167494     0.00500
Br1360     Br  0.97869819  0.30722253  0.84408265    -0.03800
C1361       C  0.88567959  0.26918251  0.71654557    -0.11200
C1362       C  0.92103638  0.28124963  0.71340857     0.04200
C1363       C  0.93203944  0.29792274  0.68992320    -0.11800
C1364       C  0.90812385  0.30345406  0.66963114     0.19100
C1365       C  0.87360768  0.28861628  0.67174531    -0.08800
C1366       C  0.86283349  0.27127315  0.69484046    -0.01800
H1367       H  0.95868070  0.30926377  0.68847470     0.05600
C1368       C  0.91793750  0.32903261  0.64862460     0.21100
H1369       H  0.83546667  0.26294573  0.69707419     0.11600
C1370       C  0.93397198  0.31856104  0.62543270    -0.15200
C1371       C  0.94140099  0.34197362  0.60467701     0.03800
C1372       C  0.93319649  0.37700472  0.60713865    -0.10500
C1373       C  0.91810010  0.38744140  0.63091604    -0.00500
C1374       C  0.91011225  0.36382907  0.65128966    -0.05700
H1375       H  0.94013689  0.29184834  0.62326243     0.06800
H1376       H  0.91124000  0.41387854  0.63338814     0.10200
Br1377     Br  0.83914194  0.29574905  0.64523354    -0.05400
Br1378     Br  0.95407456  0.28099827  0.74200204    -0.02300
Br1379     Br  0.96318725  0.32408710  0.57394255     0.00500
Br1380     Br  0.88706564  0.37994642  0.68204743    -0.03800
C1381       C  0.93877328  0.09816819  0.92481124    -0.11200
C1382       C  0.93707489  0.13460346  0.92915151     0.04200
C1383       C  0.92912547  0.15597748  0.90798309    -0.11800
C1384       C  0.92311802  0.14226046  0.88225456     0.19100
C1385       C  0.92612315  0.10661338  0.87759610    -0.08800
C1386       C  0.93373967  0.08507357  0.89858656    -0.01800
H1387       H  0.92703666  0.18345303  0.91170245     0.05600
C1388       C  0.91131516  0.16446867  0.86069254     0.21100
H1389       H  0.93490773  0.05761327  0.89426080     0.10800
C1390       C  0.93440934  0.17615227  0.84068135    -0.15200
C1391       C  0.92221748  0.18993280  0.81706313     0.03800
C1392       C  0.88630560  0.19245397  0.81326706    -0.10500
C1393       C  0.86391780  0.18399695  0.83455239    -0.00500
C1394       C  0.87601738  0.16990144  0.85793252    -0.05700
H1395       H  0.96165577  0.17216638  0.84261734     0.06800
H1396       H  0.83621131  0.18510197  0.83191716     0.10200
Br1397     Br  0.91859736  0.08581352  0.84288186    -0.05400
Br1398     Br  0.94484500  0.15782658  0.96305329    -0.02300
Br1399     Br  0.95516851  0.20017092  0.78951137     0.00500
Br1400     Br  0.84253984  0.15405336  0.88397881    -0.03800
C1401       C  0.94680775  0.10299779  0.60598143    -0.11200
C1402       C  0.93927872  0.13792856  0.60173540     0.04200
C1403       C  0.93229015  0.15935032  0.62339351    -0.11800
C1404       C  0.93261608  0.14707314  0.64938294     0.19100
C1405       C  0.94114418  0.11294959  0.65377823    -0.08800
C1406       C  0.94851811  0.09158656  0.63235342    -0.01800
H1407       H  0.92517443  0.18541041  0.61987120     0.05600
C1408       C  0.91862403  0.16775319  0.67107720     0.21100
H1409       H  0.95415495  0.06521757  0.63649073     0.10800
C1410       C  0.88277210  0.17040101  0.67132170    -0.15200
C1411       C  0.86681528  0.18223095  0.69401344     0.03800
C1412       C  0.88686227  0.19200518  0.71698494    -0.10500
C1413       C  0.92320606  0.19292621  0.71567222    -0.00500
C1414       C  0.93918742  0.18093796  0.69289245    -0.05700
H1415       H  0.86677388  0.16080727  0.65447425     0.06800
H1416       H  0.93901174  0.20026666  0.73303594     0.10200
Br1417     Br  0.93961828  0.09276536  0.68839538    -0.05400
Br1418     Br  0.93563262  0.15843797  0.56740953    -0.02300
Br1419     Br  0.81708476  0.18130283  0.69347979     0.00500
Br1420     Br  0.98874457  0.18057299  0.69309975    -0.03800
C1421       C  0.72632384  0.51950041  0.81650527    -0.11200
C1422       C  0.72158269  0.53878928  0.84009282     0.04200
C1423       C  0.73848564  0.53071016  0.86360984    -0.11800
C1424       C  0.75994284  0.50343357  0.86408381     0.19100
C1425       C  0.76253437  0.48256274  0.84125232    -0.08800
C1426       C  0.74606758  0.49084631  0.81774850    -0.01800
H1427       H  0.73746377  0.04751644  0.88086584     0.05600
C1428       C  0.78395946  0.50060825  0.88668718     0.21100
H1429       H  0.74989036  0.47553519  0.80018015     0.10800
C1430       C  0.77710395  0.47450612  0.90550560    -0.15200
C1431       C  0.80152207  0.46956400  0.92551436     0.03800
C1432       C  0.83312594  0.49120263  0.92689264    -0.10500
C1433       C  0.84015169  0.01752584  0.90798302    -0.00500
C1434       C  0.81579878  0.02251898  0.88811851    -0.05700
H1435       H  0.75321829  0.45736178  0.90413037     0.06800
H1436       H  0.86398877  0.03478513  0.90921012     0.10200
Br1437     Br  0.79105365  0.44451382  0.84062546    -0.05400
Br1438     Br  0.69438421  0.07783287  0.84076956    -0.02300
Br1439     Br  0.79191703  0.43108424  0.94889240     0.00500
Br1440     Br  0.82694365  0.05858884  0.86293062    -0.03800
C1441       C  0.73516953  0.51917156  0.72117051    -0.11200
C1442       C  0.75764180  0.49240094  0.71932713     0.04200
C1443       C  0.77427930  0.48631722  0.69546161    -0.11800
C1444       C  0.77013998  0.50717549  0.67342186     0.19100
C1445       C  0.74729372  0.53334298  0.67483303    -0.08800
C1446       C  0.72983537  0.53894725  0.69848339    -0.01800
H1447       H  0.79226366  0.46646200  0.69453389     0.05600
C1448       C  0.79306578  0.50362540  0.65048570     0.21100
H1449       H  0.71363936  0.05959146  0.69927159     0.10800
C1450       C  0.78180674  0.98277333  0.62851085    -0.15200
C1451       C  0.80385607  0.97754567  0.60719460     0.03800
C1452       C  0.83799441  0.49318623  0.60780982    -0.10500
C1453       C  0.84986563  0.51301702  0.63037109    -0.00500
C1454       C  0.82787698  0.51805404  0.65160026    -0.05700
H1455       H  0.75547641  0.97025770  0.62813668     0.06800
H1456       H  0.87641395  0.52491567  0.63150525     0.10200
Br1457     Br  0.74296424  0.06392257  0.64585309    -0.05400
Br1458     Br  0.77049658  0.46568496  0.74887105    -0.02300
Br1459     Br  0.78599800  0.94628430  0.57919223     0.00500
Br1460     Br  0.84661323  0.54460192  0.68191346    -0.03800
C1461       C  0.55774532  0.48450192  0.92540594    -0.11200
C1462       C  0.54930852  0.46526239  0.90168039     0.04200
C1463       C  0.57387030  0.46411182  0.88160081    -0.11800
C1464       C  0.60717681  0.48164556  0.88440861     0.19100
C1465       C  0.61559180  0.00095221  0.90807391    -0.08800
C1466       C  0.59096936  0.00177698  0.92831539    -0.01800
H1467       H  0.56689883  0.44937542  0.86350662     0.05600
C1468       C  0.63097943  0.48083601  0.86154368     0.21100
H1469       H  0.59793774  0.01661516  0.94635098     0.10800
C1470       C  0.62452312  0.00132508  0.83942443    -0.15200
C1471       C  0.64105313  0.99612406  0.81529873     0.03800
C1472       C  0.66484701  0.47000787  0.81286555    -0.10500
C1473       C  0.67243231  0.45132338  0.83567246    -0.00500
C1474       C  0.65591427  0.45666310  0.85983968    -0.05700
H1475       H  0.60489160  0.01952827  0.84040129     0.06800
H1476       H  0.69044381  0.43153352  0.83438975     0.10200
Br1477     Br  0.66023618  0.02657318  0.91319104    -0.05400
Br1478     Br  0.00494511  0.43755186  0.89514524    -0.02300
Br1479     Br  0.62607216  0.02153587  0.78570964     0.00500
Br1480     Br  0.66600133  0.42832279  0.88933082    -0.03800
C1481       C  0.55896591  0.49055431  0.60757430    -0.11200
C1482       C  0.54908391  0.48476484  0.63437627     0.04200
C1483       C  0.57451220  0.48440776  0.65424802    -0.11800
C1484       C  0.60998355  0.48957101  0.64851717     0.19100
C1485       C  0.62082141  0.99553098  0.62173540    -0.08800
C1486       C  0.59545055  0.99668269  0.60172212    -0.01800
H1487       H  0.56649045  0.47935395  0.67448870     0.05600
C1488       C  0.63533068  0.48708672  0.67062766     0.21100
H1489       H  0.60394995  0.00126522  0.58155411     0.10800
C1490       C  0.65700376  0.45991979  0.67049602    -0.15200
C1491       C  0.67558481  0.45223870  0.69336450     0.03800
C1492       C  0.67196585  0.47139935  0.71722244    -0.10500
C1493       C  0.65261996  0.00045000  0.71641524    -0.00500
C1494       C  0.63518519  0.00870314  0.69328398    -0.05700
H1495       H  0.65816433  0.44349242  0.65294480     0.06800
H1496       H  0.65005305  0.01622630  0.73399317     0.10200
Br1497     Br  0.66873488  0.00208432  0.61186118    -0.05400
Br1498     Br  0.00209652  0.47789033  0.64647266    -0.02300
Br1499     Br  0.70496646  0.41498277  0.69080503     0.00500
Br1500     Br  0.60948711  0.04884176  0.69433549    -0.03800
N1501       N  0.68974392  0.97882691  0.26616671    -0.02700
C1502       C  0.68252862  0.45870653  0.24364715    -0.00100
C1503       C  0.67075242  0.42514079  0.25078215    -0.23000
C1504       C  0.66816954  0.42501012  0.27785379    -0.23200
C1505       C  0.67812343  0.45850088  0.28687093    -0.00200
H1506       H  0.65973290  0.40434458  0.23768521     0.13500
H1507       H  0.65551400  0.40399333  0.28929366     0.13600
N1508       N  0.70953929  0.01222667  0.26771516    -0.02700
C1509       C  0.71699826  0.03245652  0.29001033    -0.00100
C1510       C  0.73054844  0.06546125  0.28278538    -0.23000
C1511       C  0.73398378  0.06501018  0.25583550    -0.23200
C1512       C  0.72274569  0.03170830  0.24704509    -0.00200
H1513       H  0.74228815  0.08593849  0.29586791     0.13500
H1514       H  0.74802676  0.08526422  0.24444432     0.13600
N1515       N  0.88111323  0.71172398  0.26499780    -0.02700
C1516       C  0.87073130  0.69088928  0.24346951    -0.00100
C1517       C  0.85293656  0.66002610  0.25125044    -0.23000
C1518       C  0.85304341  0.66045166  0.27814715    -0.23200
C1519       C  0.87129235  0.69135325  0.28632673    -0.00200
H1520       H  0.84467385  0.63756922  0.23875744     0.13500
H1521       H  0.84467920  0.63848978  0.29044651     0.13600
N1522       N  0.87974047  0.74878469  0.26500780    -0.02700
C1523       C  0.86797897  0.76695752  0.28614613    -0.00100
C1524       C  0.84981565  0.79397324  0.27782783    -0.23000
C1525       C  0.85060558  0.79368638  0.25094743    -0.23200
C1526       C  0.86962691  0.76679381  0.24336848    -0.00200
H1527       H  0.84049790  0.81431746  0.29012141     0.13500
H1528       H  0.84195391  0.81372928  0.23834573     0.13600
O1529       O  0.54485832  0.99063368  0.06123077    -0.74600
O1530       O  0.00114528  0.99177086  0.09137904    -0.53500
C1531       C  0.03321682  0.99119841  0.08534251     0.79200
O1532       O  0.94479519  0.58439088  0.47130811    -0.59200
O1533       O  0.94575654  0.54090353  0.44047666    -0.52200
C1534       C  0.94377645  0.57312221  0.44709015     0.71200
O1535       O  0.95189190  0.58717627  0.05979526    -0.73700
O1536       O  0.94942455  0.54434154  0.09039258    -0.54300
C1537       C  0.95020759  0.57660302  0.08385633     0.77200
O1538       O  0.54361837  0.98677703  0.47125834    -0.58900
O1539       O  0.99998147  0.98749464  0.44069691    -0.52000
C1540       C  0.03216420  0.98643842  0.44720883     0.73800
Zr1541     Zr  0.01947558  0.98947186  0.01616831     2.54700
O1542       O  0.56765226  0.53604278  0.01633028    -0.79400
O1543       O  0.56134505  0.94591826  0.01527482    -0.92800
Zr1544     Zr  0.95099238  0.56094007  0.01542593     2.64700
O1545       O  0.00030480  0.60527410  0.01455751    -0.97800
O1546       O  0.90762460  0.60269407  0.01650152    -0.79900
O1547       O  0.98639598  0.52689577  0.04130165    -0.83200
O1548       O  0.98629142  0.52551410  0.49000614    -2.17900
O1549       O  0.93819148  0.88994828  0.47101550    -0.66600
O1550       O  0.94075583  0.93293549  0.44046337    -0.51200
C1551       C  0.93816393  0.90063128  0.44694251     0.72200
O1552       O  0.85033966  0.98794588  0.06151968    -0.59500
O1553       O  0.89462776  0.98973476  0.09188535    -0.51500
C1554       C  0.86232093  0.98954150  0.08556102     0.74000
O1555       O  0.84914898  0.98637962  0.47160165    -0.70900
O1556       O  0.89199233  0.98773245  0.44063818    -0.49600
C1557       C  0.86004690  0.98753989  0.44753531     0.75300
O1558       O  0.93714257  0.89097756  0.06115339    -0.66200
O1559       O  0.94117117  0.93537450  0.09177162    -0.53400
C1560       C  0.93764223  0.90271000  0.08529844     0.73700
Zr1561     Zr  0.94101936  0.91426433  0.01606681     2.77500
O1562       O  0.89178110  0.86977448  0.01617521    -0.97000
O1563       O  0.98357047  0.87173897  0.01578564    -0.77800
Zr1564     Zr  0.87338701  0.98476213  0.01634869     2.70100
O1565       O  0.83215408  0.93285382  0.01609016    -0.79100
O1566       O  0.82847038  0.52440443  0.01882600    -0.98100
Zr1567     Zr  0.94720411  0.98897453  0.06659220     2.21500
Zr1568     Zr  0.94609658  0.98749259  0.46521915     2.11100
O1569       O  0.90713389  0.94903483  0.49028901    -2.46800
O1570       O  0.90723272  0.94970692  0.04213021    -0.78800
O1571       O  0.98072502  0.95166288  0.49035364    -0.71000
O1572       O  0.91250680  0.52395072  0.04124656    -2.32000
O1573       O  0.98110796  0.95182277  0.04173945    -2.28200
O1574       O  0.91166408  0.52292952  0.49076491    -0.72800
H1575       H  0.00115237  0.53991002  0.47836362     0.79200
H1576       H  0.89931024  0.53805449  0.05269873     0.80300
H1577       H  0.89177637  0.93435873  0.47882341     0.82500
H1578       H  0.99409770  0.93814824  0.05332773     0.80100
H1579       H  0.89114629  0.59425559  0.03043236     0.43100
H1580       H  0.83751894  0.54455903  0.00813902     0.42100
H1581       H  0.84030725  0.91842631  0.03054048     0.41800
H1582       H  0.87787553  0.87429070  0.00019862     0.39700
H1583       H  0.00602003  0.88565740  0.01278475     0.42900
H1584       H  0.55213268  0.92822037  0.02808250     0.37600
H1585       H  0.55717854  0.55686862  0.00998542     0.43800
H1586       H  0.99567420  0.62466470  0.51999470     0.40200
H1587       H  0.90188584  0.84773188  0.01198504     0.45100
H1588       H  0.58261758  0.95741044  0.02395868     0.43800
H1589       H  0.99972428  0.61534185  0.99663263     0.44000
H1590       H  0.80874294  0.51295138  0.00823373     0.44300
C1591       C  0.93338753  0.87417603  0.42501299    -0.11200
C1592       C  0.93900044  0.83858943  0.42814613     0.04200
C1593       C  0.93140682  0.81468824  0.40711000    -0.11800
C1594       C  0.91889278  0.82558135  0.38277224     0.19100
C1595       C  0.91457725  0.86100188  0.37923191    -0.08800
C1596       C  0.92161322  0.88480161  0.40016919    -0.01800
H1597       H  0.93508227  0.78744947  0.40977784     0.05600
C1598       C  0.90837327  0.79998081  0.36141455     0.21100
H1599       H  0.91712646  0.91173681  0.39700279     0.10800
C1600       C  0.87314336  0.78797084  0.35886371    -0.15200
C1601       C  0.85999490  0.77258048  0.33510406     0.03800
C1602       C  0.88233017  0.76879267  0.31349265    -0.10500
C1603       C  0.91820784  0.77724583  0.31719581    -0.00500
C1604       C  0.93132505  0.79284865  0.34100344    -0.05700
H1605       H  0.85534737  0.79329018  0.37455339     0.06800
H1606       H  0.93562550  0.77494753  0.30074637     0.10200
Br1607     Br  0.89839243  0.87802521  0.34616318    -0.05400
Br1608     Br  0.95790974  0.82054578  0.45993551    -0.02300
Br1609     Br  0.81068231  0.76103009  0.33197248     0.00500
Br1610     Br  0.97993890  0.80802529  0.34364529    -0.03800
C1611       C  0.88570271  0.76906925  0.21674553    -0.11200
C1612       C  0.92085435  0.78208994  0.21393388     0.04200
C1613       C  0.93178691  0.79907338  0.19057772    -0.11800
C1614       C  0.90802913  0.80381280  0.17001522     0.19100
C1615       C  0.87381373  0.78804585  0.17177383    -0.08800
C1616       C  0.86303577  0.77062523  0.19485139    -0.01800
H1617       H  0.95819488  0.81114760  0.18938735     0.05600
C1618       C  0.91760476  0.82934454  0.14894987     0.21100
H1619       H  0.83579109  0.76160274  0.19683864     0.11600
C1620       C  0.93406589  0.81894663  0.12594212    -0.15200
C1621       C  0.94129622  0.84222097  0.10508131     0.03800
C1622       C  0.93248364  0.87706493  0.10724193    -0.10500
C1623       C  0.91685723  0.88744536  0.13083477    -0.00500
C1624       C  0.90908256  0.86393679  0.15133531    -0.05700
H1625       H  0.94074060  0.79237790  0.12399941     0.06800
H1626       H  0.90950966  0.91373833  0.13306839     0.10200
Br1627     Br  0.83979267  0.79374503  0.14459046    -0.05400
Br1628     Br  0.95356283  0.78274716  0.24281012    -0.02300
Br1629     Br  0.96372468  0.82442827  0.07463652     0.00500
Br1630     Br  0.88547938  0.87981687  0.18191858    -0.03800
C1631       C  0.93875599  0.59838137  0.42520808    -0.11200
C1632       C  0.93709174  0.63481810  0.42951560     0.04200
C1633       C  0.92907884  0.65612324  0.40833840    -0.11800
C1634       C  0.92305311  0.64232904  0.38264132     0.19100
C1635       C  0.92588441  0.60664595  0.37803222    -0.08800
C1636       C  0.93360501  0.58518964  0.39902434    -0.01800
H1637       H  0.92705202  0.68362017  0.41200866     0.05600
C1638       C  0.91153568  0.66455869  0.36103418     0.21100
H1639       H  0.93469421  0.55770727  0.39474086     0.10800
C1640       C  0.93487115  0.67616614  0.34115849    -0.15200
C1641       C  0.92293137  0.68982050  0.31741606     0.03800
C1642       C  0.88707160  0.69246927  0.31345503    -0.10500
C1643       C  0.86447138  0.68418962  0.33464161    -0.00500
C1644       C  0.87628602  0.67002695  0.35807325    -0.05700
H1645       H  0.96207724  0.67208729  0.34325709     0.06800
H1646       H  0.83679366  0.68531392  0.33183265     0.10200
Br1647     Br  0.91778946  0.58563648  0.34343854    -0.05400
Br1648     Br  0.94528115  0.65816998  0.46332727    -0.02300
Br1649     Br  0.95602545  0.69938617  0.28983331     0.00500
Br1650     Br  0.84249587  0.65395946  0.38383737    -0.03800
C1651       C  0.94725244  0.60277452  0.10572641    -0.11200
C1652       C  0.93959481  0.63763939  0.10140168     0.04200
C1653       C  0.93195895  0.65891041  0.12299358    -0.11800
C1654       C  0.93175286  0.64648613  0.14896181     0.19100
C1655       C  0.94038808  0.61241771  0.15341267    -0.08800
C1656       C  0.94855043  0.59128467  0.13208935    -0.01800
H1657       H  0.92483746  0.68495383  0.11942335     0.05600
C1658       C  0.91785909  0.66720965  0.17068782     0.21100
H1659       H  0.95429400  0.56495718  0.13626394     0.10800
C1660       C  0.88196782  0.66951760  0.17134579    -0.15200
C1661       C  0.86638665  0.68149260  0.19417878     0.03800
C1662       C  0.88684601  0.69168625  0.21688699    -0.10500
C1663       C  0.92316979  0.69290699  0.21513348    -0.00500
C1664       C  0.93875568  0.68074916  0.19222160    -0.05700
H1665       H  0.86570180  0.65959355  0.15473407     0.06800
H1666       H  0.93928423  0.70051517  0.23230982     0.10200
Br1667     Br  0.93783017  0.59194924  0.18791263    -0.05400
Br1668     Br  0.93659696  0.65811037  0.06698331    -0.02300
Br1669     Br  0.81662402  0.68019398  0.19424514     0.00500
Br1670     Br  0.98830118  0.68044634  0.19188956    -0.03800
C1671       C  0.72684849  0.01954138  0.31642686    -0.11200
C1672       C  0.72255317  0.03892371  0.34002601     0.04200
C1673       C  0.73949509  0.03057740  0.36344952    -0.11800
C1674       C  0.76037243  0.00280269  0.36384178     0.19100
C1675       C  0.76222192  0.98170104  0.34104349    -0.08800
C1676       C  0.74598605  0.99044632  0.31757934    -0.01800
H1677       H  0.73690290  0.54608770  0.38117924     0.05600
C1678       C  0.78463463  0.99969147  0.38625418     0.21100
H1679       H  0.74934851  0.97498683  0.30000291     0.10800
C1680       C  0.77859588  0.97267760  0.40444526    -0.15200
C1681       C  0.80315090  0.96783177  0.42437491     0.03800
C1682       C  0.83408039  0.99041952  0.42628855    -0.10500
C1683       C  0.83957200  0.51694297  0.40813993    -0.00500
C1684       C  0.81522526  0.52151258  0.38818775    -0.05700
H1685       H  0.75518962  0.95488112  0.40270180     0.06800
H1686       H  0.86328340  0.53439503  0.40930224     0.10200
Br1687     Br  0.78923106  0.94250013  0.34037214    -0.05400
Br1688     Br  0.69440525  0.57703013  0.34107943    -0.02300
Br1689     Br  0.79467895  0.92843484  0.44701940     0.00500
Br1690     Br  0.82625041  0.55725753  0.36270963    -0.03800
C1691       C  0.73543415  0.01908744  0.22119533    -0.11200
C1692       C  0.75742608  0.99189989  0.21925213     0.04200
C1693       C  0.77385673  0.98561612  0.19533466    -0.11800
C1694       C  0.77012012  0.00676054  0.17340489     0.19100
C1695       C  0.74803554  0.03356867  0.17500147    -0.08800
C1696       C  0.73058257  0.03922815  0.19862420    -0.01800
H1697       H  0.79144074  0.96540182  0.19430075     0.05600
C1698       C  0.79300617  0.00306213  0.15050241     0.21100
H1699       H  0.71444305  0.56014970  0.19951553     0.10800
C1700       C  0.78163934  0.48148883  0.12848414    -0.15200
C1701       C  0.80397471  0.47606565  0.10738032     0.03800
C1702       C  0.83777771  0.99303166  0.10769934    -0.10500
C1703       C  0.84961925  0.01296180  0.13022496    -0.00500
C1704       C  0.82769495  0.01780150  0.15151911    -0.05700
H1705       H  0.75542817  0.46867901  0.12810953     0.06800
H1706       H  0.87608914  0.02508391  0.13127730     0.10200
Br1707     Br  0.74303164  0.56383495  0.14579200    -0.05400
Br1708     Br  0.76996654  0.96481297  0.24868835    -0.02300
Br1709     Br  0.78677834  0.44410255  0.07961087     0.00500
Br1710     Br  0.84631396  0.04443710  0.18183250    -0.03800
C1711       C  0.55769287  0.98303228  0.42550310    -0.11200
C1712       C  0.54945210  0.96358538  0.40183493     0.04200
C1713       C  0.57401897  0.96277258  0.38172106    -0.11800
C1714       C  0.60711596  0.98078519  0.38451688     0.19100
C1715       C  0.61529829  0.49968373  0.40794515    -0.08800
C1716       C  0.59084746  0.50039984  0.42836621    -0.01800
H1717       H  0.56722545  0.94796093  0.36362998     0.05600
C1718       C  0.63096588  0.98046306  0.36170558     0.21100
H1719       H  0.59775215  0.51567697  0.44620730     0.10800
C1720       C  0.62425640  0.49999325  0.33949985    -0.15200
C1721       C  0.64101776  0.49524469  0.31538182     0.03800
C1722       C  0.66502702  0.97057055  0.31307069    -0.10500
C1723       C  0.67265304  0.95159393  0.33570296    -0.00500
C1724       C  0.65606026  0.95649176  0.35986739    -0.05700
H1725       H  0.60455569  0.51811142  0.34056990     0.06800
H1726       H  0.69065809  0.93181413  0.33424123     0.10200
Br1727     Br  0.65960289  0.52620857  0.41241476    -0.05400
Br1728     Br  0.00518361  0.93936049  0.39499997    -0.02300
Br1729     Br  0.62606955  0.52090515  0.28591415     0.00500
Br1730     Br  0.66631342  0.92783448  0.38912756    -0.03800
C1731       C  0.55949622  0.99143698  0.10763240    -0.11200
C1732       C  0.54947951  0.98618114  0.13447502     0.04200
C1733       C  0.57482207  0.98562344  0.15437869    -0.11800
C1734       C  0.61032295  0.99026911  0.14868126     0.19100
C1735       C  0.62034685  0.49522638  0.12187809    -0.08800
C1736       C  0.59501672  0.49618714  0.10185297    -0.01800
H1737       H  0.56669365  0.98084531  0.17463137     0.05600
C1738       C  0.63553247  0.98757866  0.17084512     0.21100
H1739       H  0.60353053  0.50045460  0.08165213     0.10800
C1740       C  0.65704840  0.96026303  0.17074900    -0.15200
C1741       C  0.67556869  0.95254686  0.19363144     0.03800
C1742       C  0.67194993  0.97174478  0.21744588    -0.10500
C1743       C  0.65265077  0.50077499  0.21650136    -0.00500
C1744       C  0.63494565  0.50901714  0.19347387    -0.05700
H1745       H  0.65815695  0.94378825  0.15321972     0.06800
H1746       H  0.65030116  0.51656714  0.23410658     0.10200
Br1747     Br  0.66821121  0.50093575  0.11179620    -0.05400
Br1748     Br  0.00241074  0.97882655  0.14660780    -0.02300
Br1749     Br  0.70490080  0.91522124  0.19125644     0.00500
Br1750     Br  0.60922766  0.54914464  0.19468690    -0.03800
N1751       N  0.68964890  0.97889227  0.76614172    -0.02700
C1752       C  0.68282878  0.45851156  0.74355882    -0.00100
C1753       C  0.67130906  0.42486052  0.75066636    -0.23000
C1754       C  0.66836894  0.42475677  0.77772043    -0.23200
C1755       C  0.67793118  0.45832769  0.78673651    -0.00200
H1756       H  0.66060567  0.40396621  0.73753042     0.13500
H1757       H  0.65576564  0.40366416  0.78911204     0.13600
N1758       N  0.70946761  0.01227734  0.76755017    -0.02700
C1759       C  0.71701121  0.03264192  0.78977388    -0.00100
C1760       C  0.73057223  0.06557830  0.78239855    -0.23000
C1761       C  0.73388973  0.06494939  0.75542967    -0.23200
C1762       C  0.72258421  0.03160707  0.74677222    -0.00200
H1763       H  0.74235245  0.08613000  0.79539941     0.13500
H1764       H  0.74792164  0.08510155  0.74393486     0.13600
N1765       N  0.88100127  0.71142956  0.76469061    -0.02700
C1766       C  0.87127749  0.69069140  0.74300331    -0.00100
C1767       C  0.85358490  0.65962263  0.75046936    -0.23000
C1768       C  0.85306465  0.65988064  0.77736419    -0.23200
C1769       C  0.87083898  0.69090204  0.78584212    -0.00200
H1770       H  0.84588896  0.63716924  0.73781588     0.13500
H1771       H  0.84468824  0.63775511  0.78949620     0.13600
N1772       N  0.87961817  0.74848286  0.76478807    -0.02700
C1773       C  0.86717561  0.76634600  0.78580106    -0.00100
C1774       C  0.84903087  0.79330688  0.77736127    -0.23000
C1775       C  0.85069479  0.79342929  0.75052550    -0.23200
C1776       C  0.87005208  0.76672104  0.74311573    -0.00200
H1777       H  0.83927315  0.81344770  0.78961094     0.13500
H1778       H  0.84223054  0.81353177  0.73789254     0.13600
O1779       O  0.54483296  0.99178387  0.56108951    -0.74600
O1780       O  0.00149756  0.99194228  0.59135714    -0.53500
C1781       C  0.03360867  0.99190898  0.58534695     0.79200
O1782       O  0.94493401  0.58438229  0.97083294    -0.59200
O1783       O  0.94525038  0.54076134  0.94007394    -0.52200
C1784       C  0.94367946  0.57305954  0.94662955     0.71200
O1785       O  0.95293937  0.58728043  0.56005161    -0.73700
O1786       O  0.95038055  0.54434802  0.59056631    -0.54300
C1787       C  0.95142825  0.57666153  0.58410963     0.77200
O1788       O  0.54340083  0.98697562  0.97100368    -0.58900
O1789       O  0.99991038  0.98698290  0.94067698    -0.52000
C1790       C  0.03204647  0.98575671  0.94728961     0.73800
Zr1791     Zr  0.01989691  0.99007263  0.51610663     2.54700
O1792       O  0.56415406  0.53833274  0.51439635    -0.79400
O1793       O  0.56016622  0.94543574  0.51592505    -0.92800
Zr1794     Zr  0.95199174  0.56088592  0.51569323     2.64700
O1795       O  0.00329332  0.60251959  0.51303228    -0.97800
O1796       O  0.91169657  0.60544608  0.51854559    -0.79900
O1797       O  0.98682205  0.52648493  0.54166418    -0.83200
O1798       O  0.98586742  0.52592594  0.98987756    -2.17900
O1799       O  0.93772157  0.88912447  0.97103892    -0.66600
O1800       O  0.94099411  0.93216959  0.94050660    -0.51200
C1801       C  0.93806766  0.89983715  0.94694199     0.72200
O1802       O  0.85091160  0.98778768  0.56158920    -0.59500
O1803       O  0.89527378  0.99034825  0.59192025    -0.51500
C1804       C  0.86294728  0.98983251  0.58560592     0.74000
O1805       O  0.84886716  0.98667271  0.97159602    -0.70900
O1806       O  0.89172629  0.98731398  0.94065313    -0.49600
C1807       C  0.85981345  0.98757154  0.94754463     0.75300
O1808       O  0.93786927  0.89123614  0.56109900    -0.66200
O1809       O  0.94153549  0.93559121  0.59171446    -0.53400
C1810       C  0.93815703  0.90292922  0.58522872     0.73700
Zr1811     Zr  0.94206434  0.91459942  0.51610067     2.77500
O1812       O  0.89542762  0.86729550  0.51655122    -0.97000
O1813       O  0.98616017  0.87362799  0.51577489    -0.77800
Zr1814     Zr  0.87375236  0.98467834  0.51638800     2.70100
O1815       O  0.83183343  0.93329002  0.51595884    -0.79100
O1816       O  0.82888949  0.52548363  0.51789320    -0.98100
Zr1817     Zr  0.94768431  0.98923765  0.56656545     2.21500
Zr1818     Zr  0.94592507  0.98688404  0.96511774     2.11100
O1819       O  0.90655486  0.94894095  0.99014904    -2.46800
O1820       O  0.90785157  0.94972380  0.54210906    -0.78800
O1821       O  0.98021388  0.95099452  0.99046648    -0.71000
O1822       O  0.91287381  0.52430548  0.54129864    -2.32000
O1823       O  0.98194038  0.95225716  0.54184375    -2.28200
O1824       O  0.91105756  0.52248573  0.99068515    -0.72800
H1825       H  0.00064872  0.54040376  0.97822727     0.79200
H1826       H  0.89982043  0.53861541  0.55270465     0.80300
H1827       H  0.89119844  0.93437529  0.97862154     0.82500
H1828       H  0.99500875  0.93868430  0.55344131     0.80100
H1829       H  0.88965565  0.59285891  0.52446414     0.43100
H1830       H  0.83594944  0.54312129  0.50441308     0.42100
H1831       H  0.84232781  0.91655632  0.52756352     0.41800
H1832       H  0.88501578  0.86634787  0.49848188     0.39700
H1833       H  0.00126022  0.88084355  0.50068976     0.42900
H1834       H  0.55735669  0.93418620  0.53341089     0.37600
H1835       H  0.57848743  0.53646866  0.53061188     0.43800
H1836       H  0.02092224  0.59193674  0.01445901     0.40200
H1837       H  0.90749229  0.84584553  0.51770577     0.45100
H1838       H  0.58346572  0.95855040  0.51685364     0.43800
H1839       H  0.01927197  0.59517736  0.52689426     0.44000
H1840       H  0.80787638  0.51211674  0.51023496     0.44300
C1841       C  0.93308381  0.87348624  0.92487721    -0.11200
C1842       C  0.93737126  0.83758505  0.92801691     0.04200
C1843       C  0.92926827  0.81391165  0.90692495    -0.11800
C1844       C  0.91732149  0.82522469  0.88256257     0.19100
C1845       C  0.91407731  0.86084988  0.87900879    -0.08800
C1846       C  0.92193663  0.88452107  0.89993722    -0.01800
H1847       H  0.93206597  0.78648226  0.90958037     0.05600
C1848       C  0.90685089  0.79986323  0.86106535     0.21100
H1849       H  0.91835265  0.91166488  0.89673563     0.10800
C1850       C  0.87171028  0.78751511  0.85845253    -0.15200
C1851       C  0.85884678  0.77185505  0.83470177     0.03800
C1852       C  0.88134918  0.76841182  0.81315567    -0.10500
C1853       C  0.91713549  0.77735349  0.81690412    -0.00500
C1854       C  0.93000449  0.79287803  0.84077686    -0.05700
H1855       H  0.85379487  0.79258226  0.87411888     0.06800
H1856       H  0.93466371  0.77532946  0.80049051     0.10200
Br1857     Br  0.89789780  0.87824081  0.84604447    -0.05400
Br1858     Br  0.95478848  0.81858272  0.95994595    -0.02300
Br1859     Br  0.80969084  0.75932913  0.83146566     0.00500
Br1860     Br  0.97866313  0.80767009  0.84389804    -0.03800
C1861       C  0.88623283  0.76886954  0.71653571    -0.11200
C1862       C  0.92139810  0.78184867  0.71367357     0.04200
C1863       C  0.93226645  0.79887690  0.69029623    -0.11800
C1864       C  0.90835872  0.80395244  0.66988669     0.19100
C1865       C  0.87407143  0.78842604  0.67180387    -0.08800
C1866       C  0.86349144  0.77063104  0.69473665    -0.01800
H1867       H  0.95871868  0.81080746  0.68901933     0.05600
C1868       C  0.91790375  0.82948798  0.64880062     0.21100
H1869       H  0.83622823  0.76173493  0.69681065     0.11600
C1870       C  0.93458000  0.81914558  0.62586366    -0.15200
C1871       C  0.94186652  0.84243101  0.60500812     0.03800
C1872       C  0.93288854  0.87722800  0.60711337    -0.10500
C1873       C  0.91695372  0.88751539  0.63058290    -0.00500
C1874       C  0.90911741  0.86400951  0.65106190    -0.05700
H1875       H  0.94140161  0.79262160  0.62397767     0.06800
H1876       H  0.90942156  0.91374951  0.63273692     0.10200
Br1877     Br  0.83951926  0.79519734  0.64527726    -0.05400
Br1878     Br  0.95414756  0.78246070  0.74252988    -0.02300
Br1879     Br  0.96464545  0.82476103  0.57467310     0.00500
Br1880     Br  0.88506019  0.87987131  0.68141332    -0.03800
C1881       C  0.93881545  0.59836681  0.92472647    -0.11200
C1882       C  0.93687438  0.63476526  0.92906716     0.04200
C1883       C  0.92855466  0.65601332  0.90794005    -0.11800
C1884       C  0.92268573  0.64224877  0.88222836     0.19100
C1885       C  0.92628202  0.60673247  0.87750137    -0.08800
C1886       C  0.93405126  0.58526831  0.89848525    -0.01800
H1887       H  0.92620409  0.68344337  0.91165680     0.05600
C1888       C  0.91080159  0.66435623  0.86068564     0.21100
H1889       H  0.93559077  0.55786936  0.89413559     0.10800
C1890       C  0.93414453  0.67676952  0.84107058    -0.15200
C1891       C  0.92214582  0.69033004  0.81733191     0.03800
C1892       C  0.88619136  0.69202165  0.81309363    -0.10500
C1893       C  0.86345983  0.68300136  0.83405720    -0.00500
C1894       C  0.87536675  0.66897324  0.85751215    -0.05700
H1895       H  0.96149239  0.67340695  0.84335839     0.06800
H1896       H  0.83573127  0.68348419  0.83105277     0.10200
Br1897     Br  0.91959135  0.58603501  0.84268475    -0.05400
Br1898     Br  0.94509152  0.65817128  0.96284666    -0.02300
Br1899     Br  0.95550986  0.70114675  0.79014990     0.00500
Br1900     Br  0.84159186  0.65207800  0.88302692    -0.03800
C1901       C  0.94913233  0.60282798  0.60610968    -0.11200
C1902       C  0.94225549  0.63797493  0.60200078     0.04200
C1903       C  0.93523823  0.65927960  0.62371799    -0.11800
C1904       C  0.93483384  0.64663270  0.64961117     0.19100
C1905       C  0.94294066  0.61235259  0.65389918    -0.08800
C1906       C  0.95045559  0.59114224  0.63243021    -0.01800
H1907       H  0.92854362  0.68551033  0.62029215     0.05600
C1908       C  0.92054229  0.66717732  0.67123293     0.21100
H1909       H  0.95569855  0.56462900  0.63646794     0.10800
C1910       C  0.88468823  0.66986864  0.67118886    -0.15200
C1911       C  0.86847258  0.68182662  0.69371678     0.03800
C1912       C  0.88825642  0.69168261  0.71679164    -0.10500
C1913       C  0.92461311  0.69256032  0.71576639    -0.00500
C1914       C  0.94084485  0.68032227  0.69318921    -0.05700
H1915       H  0.86889105  0.66023337  0.65424759     0.06800
H1916       H  0.94019497  0.69990138  0.73325186     0.10200
Br1917     Br  0.94045819  0.59173714  0.68835638    -0.05400
Br1918     Br  0.93937352  0.65889651  0.56776570    -0.02300
Br1919     Br  0.81873631  0.68086902  0.69291239     0.00500
Br1920     Br  0.99032991  0.67935101  0.69393009    -0.03800
C1921       C  0.72687495  0.01991636  0.81626904    -0.11200
C1922       C  0.72239561  0.03936062  0.83981376     0.04200
C1923       C  0.73936868  0.03125569  0.86330578    -0.11800
C1924       C  0.76050976  0.00368757  0.86380096     0.19100
C1925       C  0.76267541  0.98261273  0.84102805    -0.08800
C1926       C  0.74628352  0.99103075  0.81753982    -0.01800
H1927       H  0.73636950  0.54687077  0.88119668     0.05600
C1928       C  0.78456373  0.00056950  0.88635890     0.21100
H1929       H  0.74980211  0.97553535  0.80001806     0.10800
C1930       C  0.77837485  0.97345198  0.90445650    -0.15200
C1931       C  0.80292105  0.96828905  0.92432013     0.03800
C1932       C  0.83393985  0.99070922  0.92630364    -0.10500
C1933       C  0.83983198  0.51719815  0.90796464    -0.00500
C1934       C  0.81561470  0.52191603  0.88794662    -0.05700
H1935       H  0.75491524  0.95574552  0.90262677     0.06800
H1936       H  0.86402233  0.53394565  0.90876098     0.10200
Br1937     Br  0.79045071  0.94398288  0.84042118    -0.05400
Br1938     Br  0.69359136  0.57726799  0.84108735    -0.02300
Br1939     Br  0.79443819  0.92862309  0.94670502     0.00500
Br1940     Br  0.82752179  0.55661871  0.86184053    -0.03800
C1941       C  0.73536439  0.01877926  0.72100398    -0.11200
C1942       C  0.75788752  0.99202336  0.71931362     0.04200
C1943       C  0.77479384  0.98597295  0.69555495    -0.11800
C1944       C  0.77079378  0.00680266  0.67348330     0.19100
C1945       C  0.74793444  0.03294955  0.67474661    -0.08800
C1946       C  0.73018869  0.03849224  0.69825914    -0.01800
H1947       H  0.79281999  0.96614964  0.69473292     0.05600
C1948       C  0.79373257  0.00321736  0.65059281     0.21100
H1949       H  0.71329618  0.56004657  0.69961110     0.10800
C1950       C  0.78099919  0.48357612  0.62823851    -0.15200
C1951       C  0.80319193  0.47792302  0.60707770     0.03800
C1952       C  0.83841947  0.99341868  0.60771120    -0.10500
C1953       C  0.85016836  0.01365581  0.63011044    -0.00500
C1954       C  0.82826311  0.01845201  0.65142548    -0.05700
H1955       H  0.75449260  0.47152451  0.62768076     0.06800
H1956       H  0.87652954  0.02608231  0.63103036     0.10200
Br1957     Br  0.74178908  0.56412611  0.64590532    -0.05400
Br1958     Br  0.77039113  0.96521606  0.74890207    -0.02300
Br1959     Br  0.78524618  0.44662626  0.57912683     0.00500
Br1960     Br  0.84665018  0.04590948  0.68140207    -0.03800
C1961       C  0.55733430  0.98444594  0.92519702    -0.11200
C1962       C  0.54903612  0.96532684  0.90139739     0.04200
C1963       C  0.57373803  0.96439929  0.88140530    -0.11800
C1964       C  0.60693445  0.98215799  0.88438115     0.19100
C1965       C  0.61614592  0.50031274  0.90812397    -0.08800
C1966       C  0.59159072  0.50146433  0.92843757    -0.01800
H1967       H  0.56697077  0.94970288  0.86325815     0.05600
C1968       C  0.63096939  0.98154576  0.86169354     0.21100
H1969       H  0.59879310  0.51623346  0.94646033     0.10800
C1970       C  0.62428306  0.50042461  0.83920791    -0.15200
C1971       C  0.64064787  0.49512171  0.81501779     0.03800
C1972       C  0.66506496  0.97082653  0.81314050    -0.10500
C1973       C  0.67257636  0.95211957  0.83596496    -0.00500
C1974       C  0.65599984  0.95747429  0.86010210    -0.05700
H1975       H  0.60459197  0.51856181  0.84019838     0.06800
H1976       H  0.69054914  0.93229161  0.83470987     0.10200
Br1977     Br  0.66117508  0.52519688  0.91320835    -0.05400
Br1978     Br  0.00614985  0.93609267  0.89636380    -0.02300
Br1979     Br  0.62519872  0.52008941  0.78534695     0.00500
Br1980     Br  0.66627691  0.92947423  0.88976152    -0.03800
C1981       C  0.55965982  0.99176576  0.60739369    -0.11200
C1982       C  0.54982520  0.98580867  0.63418332     0.04200
C1983       C  0.57528542  0.98493884  0.65396962    -0.11800
C1984       C  0.61076035  0.98992269  0.64822151     0.19100
C1985       C  0.62007272  0.49481406  0.62200168    -0.08800
C1986       C  0.59474539  0.49544392  0.60191719    -0.01800
H1987       H  0.56727071  0.97975277  0.67419409     0.05600
C1988       C  0.63603923  0.98734665  0.67039061     0.21100
H1989       H  0.60326605  0.49980532  0.58172857     0.10800
C1990       C  0.65748868  0.95997987  0.67048742    -0.15200
C1991       C  0.67565590  0.95218157  0.69355444     0.03800
C1992       C  0.67185381  0.97143827  0.71734136    -0.10500
C1993       C  0.65254373  0.50029600  0.71649586    -0.00500
C1994       C  0.63462284  0.50840165  0.69355186    -0.05700
H1995       H  0.65875916  0.94349952  0.65297735     0.06800
H1996       H  0.65019669  0.51608032  0.73409254     0.10200
Br1997     Br  0.66800285  0.50194249  0.61223661    -0.05400
Br1998     Br  0.00243040  0.98156620  0.64683213    -0.02300
Br1999     Br  0.70476024  0.91465343  0.69142877     0.00500
Br2000     Br  0.60855604  0.54827037  0.69491898    -0.03800
loop_ 
_geom_bond_atom_site_label_1 
_geom_bond_atom_site_label_2 
_geom_bond_distance 
_geom_bond_site_symmetry_2 
_ccdc_geom_bond_type 
N1            N8   1.433       .  S
N1          C505   1.369       .  A
N1          C502   1.370       .  A
C2          N501   1.370       .  A
C2            C3   1.384       .  A
C2          C742   1.495       .  S
C3            C4   1.369       .  A
C3            H6   1.082       .  S
C4            C5   1.380       .  A
C4            H7   1.083       .  S
C5          N501   1.370       .  A
C5          C722   1.495       .  S
N8           C12   1.368       .  A
N8            C9   1.370       .  A
C9           C10   1.384       .  A
C9          C171   1.489       .  S
C10          C11   1.367       .  A
C10          H13   1.082       .  S
C11          C12   1.380       .  A
C11          H14   1.083       .  S
C12         C191   1.490       .  S
N15          N22   1.435       .  S
N15          C19   1.376       .  A
N15          C16   1.372       .  A
C16          C17   1.380       .  A
C16         C162   1.481       .  S
C17          C18   1.355       .  A
C17          H20   1.083       .  S
C18          C19   1.380       .  A
C18          H21   1.083       .  S
C19         C142   1.488       .  S
N22          C26   1.376       .  A
N22          C23   1.372       .  A
C23          C24   1.379       .  A
C23         C102   1.480       .  S
C24          C25   1.355       .  A
C24          H27   1.083       .  S
C25          C26   1.380       .  A
C25          H28   1.083       .  S
C26         C111   1.487       .  S
O29       Zr1041   2.458       .  S
O29        C1031   1.291       .  A
O30         Zr67   2.406       .  S
O30          C31   1.281       .  A
C31        C1231   1.494       .  S
C31        O1029   1.292       .  A
O32        Zr294   2.447       .  S
O32          C34   1.287       .  A
O33        Zr568   2.444   1_545  S
O33          C34   1.291       .  A
C34         C131   1.507       .  S
O35         Zr44   2.434       .  S
O35          C37   1.284       .  A
O36        Zr567   2.427   1_545  S
O36          C37   1.289       .  A
C37         C151   1.493       .  S
O38       Zr1291   2.452       .  S
O38        C1040   1.290       .  A
O39         Zr68   2.439       .  S
O39          C40   1.290       .  A
C40        C1211   1.491       .  S
C40        O1038   1.290       .  A
Zr41       O1029   2.458       .  S
Zr41       O1288   2.450   1_554  S
Zr41         O73   2.376       .  S
Zr41        O547   2.378       .  S
Zr41        O798   2.386   1_554  S
Zr41        O321   2.374   1_554  S
Zr41       O1542   2.433       .  S
Zr41       O1043   2.437       .  S
O42       Zr1541   2.434   1_545  S
O42          H85   0.990       .  S
O43       Zr1041   2.437       .  S
O43          H84   0.990       .  S
O43          H88   0.990       .  S
Zr44        O282   2.448   1_554  S
Zr44         O47   2.378       .  S
Zr44         O72   2.372       .  S
Zr44        O298   2.370   1_554  S
Zr44        O324   2.366   1_554  S
Zr44         O45   2.435       .  S
Zr44         O46   2.432       .  S
O45          H89   0.990       .  S
O45         H336   0.990       .  S
O46          H79   0.990       .  S
O47        Zr541   2.375   1_545  S
O47        Zr567   2.379   1_545  S
O48        Zr791   2.383   1_545  S
O48        Zr294   2.371       .  S
O48        Zr568   2.381   1_545  S
O48          H75   0.968       .  S
O49        Zr311   2.447       .  S
O49          C51   1.288       .  A
O50         Zr68   2.420       .  S
O50          C51   1.288       .  A
C51          C91   1.492       .  S
O52         Zr64   2.453       .  S
O52          C54   1.289       .  A
O53         Zr67   2.415       .  S
O53          C54   1.286       .  A
C54         C202   1.484       .  S
O55        Zr314   2.444       .  S
O55          C57   1.288       .  A
O56         Zr68   2.424       .  S
O56          C57   1.287       .  A
C57         C182   1.474       .  S
O58         Zr61   2.453       .  S
O58          C60   1.289       .  A
O59         Zr67   2.436       .  S
O59          C60   1.290       .  A
C60         C122   1.495       .  S
Zr61        O299   2.444   1_554  S
Zr61         O70   2.371       .  S
Zr61         O73   2.372       .  S
Zr61        O319   2.372   1_554  S
Zr61        O321   2.376   1_554  S
Zr61         O62   2.435       .  S
Zr61         O63   2.434       .  S
O62          H82   0.990       .  S
O62          H87   0.990       .  S
O63          H83   0.990       .  S
Zr64        O305   2.440   1_554  S
Zr64         O70   2.363       .  S
Zr64        O319   2.368   1_554  S
Zr64        O824   2.383   1_554  S
Zr64        O572   2.367       .  S
Zr64         O65   2.436       .  S
Zr64        O566   2.435       .  S
O65          H81   0.989       .  S
O66        Zr564   2.435   1_545  S
O66          H80   0.990       .  S
O66          H90   0.990       .  S
Zr67        O536   2.427       .  S
Zr67         O70   2.376       .  S
Zr67         O73   2.384       .  S
Zr67        O547   2.382       .  S
Zr67        O572   2.379       .  S
Zr68        O533   2.441       .  S
Zr68         O69   2.392       .  S
Zr68         O71   2.383       .  S
Zr68        O548   2.379       .  S
Zr68        O574   2.378       .  S
O69        Zr311   2.372       .  S
O69        Zr314   2.369       .  S
O69          H77   0.961       .  S
O71        Zr291   2.376       .  S
O71        Zr311   2.378       .  S
O72        Zr564   2.365   1_545  S
O72        Zr567   2.378   1_545  S
O72          H76   0.969       .  S
O73          H78   0.962       .  S
O74        Zr294   2.369       .  S
O74        Zr814   2.381   1_545  S
O74        Zr568   2.379   1_545  S
H86         O295   0.990       .  S
C91          C92   1.421       .  A
C91          C96   1.409       .  A
C92          C93   1.403       .  A
C92        Br108   1.921       .  S
C93          C94   1.399       .  A
C93          H97   1.083       .  S
C94          C95   1.405       .  A
C94          C98   1.476       .  S
C95          C96   1.395       .  A
C95        Br107   1.921       .  S
C96          H99   1.083       .  S
C98         C100   1.400       .  A
C98         C104   1.407       .  A
C100        C101   1.397       .  A
C100        H105   1.084       .  S
C101        C102   1.412       .  A
C101       Br109   1.920       .  S
C102        C103   1.404       .  A
C103        C104   1.402       .  A
C103        H106   1.082       .  S
C104       Br110   1.917       .  S
C111        C112   1.413       .  A
C111        C116   1.408       .  A
C112        C113   1.406       .  A
C112       Br128   1.916       .  S
C113        C114   1.404       .  A
C113        H117   1.083       .  S
C114        C115   1.406       .  A
C114        C118   1.486       .  S
C115        C116   1.399       .  A
C115       Br127   1.919       .  S
C116        H119   1.083       .  S
C118        C120   1.401       .  A
C118        C124   1.409       .  A
C120        C121   1.406       .  A
C120        H125   1.083       .  S
C121        C122   1.420       .  A
C121       Br129   1.920       .  S
C122        C123   1.407       .  A
C123        C124   1.400       .  A
C123        H126   1.083       .  S
C124       Br130   1.920       .  S
C131        C132   1.427       .  A
C131        C136   1.411       .  A
C132        C133   1.407       .  A
C132       Br148   1.923       .  S
C133        C134   1.400       .  A
C133        H137   1.084       .  S
C134        C135   1.406       .  A
C134        C138   1.487       .  S
C135        C136   1.401       .  A
C135       Br147   1.920       .  S
C136        H139   1.083       .  S
C138        C140   1.404       .  A
C138        C144   1.407       .  A
C140        C141   1.405       .  A
C140        H145   1.083       .  S
C141        C142   1.412       .  A
C141       Br149   1.915       .  S
C142        C143   1.408       .  A
C143        C144   1.399       .  A
C143        H146   1.083       .  S
C144       Br150   1.919       .  S
C151        C152   1.424       .  A
C151        C156   1.408       .  A
C152        C153   1.402       .  A
C152       Br168   1.923       .  S
C153        C154   1.399       .  A
C153        H157   1.084       .  S
C154        C155   1.407       .  A
C154        C158   1.479       .  S
C155        C156   1.394       .  A
C155       Br167   1.919       .  S
C156        H159   1.083       .  S
C158        C160   1.400       .  A
C158        C164   1.408       .  A
C160        C161   1.396       .  A
C160        H165   1.084       .  S
C161        C162   1.412       .  A
C161       Br169   1.920       .  S
C162        C163   1.405       .  A
C163        C164   1.402       .  A
C163        H166   1.080       .  S
C164       Br170   1.918       .  S
C171        C172   1.414       .  A
C171        C176   1.404       .  A
C172        C173   1.402       .  A
C172       Br688   1.920       .  S
C173        C174   1.403       .  A
C173        H677   1.083       .  S
C174        C175   1.403       .  A
C174        C178   1.476       .  S
C175        C176   1.394       .  A
C175       Br187   1.919       .  S
C176        H179   1.075       .  S
H177        C673   1.083       .  S
C178        C180   1.402       .  A
C178        C684   1.407       .  A
C180        C181   1.402       .  A
C180        H185   1.083       .  S
C181        C182   1.411       .  A
C181       Br189   1.919       .  S
C182        C683   1.402       .  A
C183        C184   1.395       .  A
C183        C682   1.402   1_545  A
C183        H186   1.084       .  S
C184        C678   1.407       .  A
C184       Br190   1.918       .  S
Br188       C672   1.920       .  S
C191        C192   1.415       .  A
C191        C196   1.409       .  A
C192        C193   1.397       .  A
C192       Br208   1.911       .  S
C193        C194   1.398       .  A
C193        H197   1.084       .  S
C194        C195   1.405       .  A
C194        C198   1.476       .  S
C195        C196   1.400       .  A
C195       Br707   1.917       .  S
C196        H699   1.084       .  S
C198        C204   1.406       .  A
C198        C700   1.401       .  A
H199        C696   1.084       .  S
C200        C201   1.402       .  A
C200        C698   1.401   1_565  A
C200        H205   1.084       .  S
C201        C702   1.415       .  A
C201       Br209   1.919       .  S
C202        C203   1.407       .  A
C202        C701   1.415       .  A
C203        C204   1.396       .  A
C203        H206   1.084       .  S
C204       Br210   1.920       .  S
Br207       C695   1.917       .  S
C211        C212   1.415       .  A
C211        C716   1.411       .  A
C211       C1040   1.491       .  S
C212        C213   1.398       .  A
C212      Br1228   1.920       .  S
C213        C214   1.400       .  A
C213        H217   1.084       .  S
C214        C715   1.407       .  A
C214        C218   1.483       .  S
C215        C216   1.406       .  A
C215        C714   1.407   1_545  A
C215       Br227   1.918       .  S
C216        C711   1.411   1_545  A
C216        H219   1.083       .  S
C218        C224   1.407       .  A
C218        C720   1.400       .  A
C220        C221   1.400   1_545  A
C220        C718   1.400   1_545  A
C220        H225   1.084       .  S
C221        C722   1.414       .  A
C221       Br229   1.911   1_565  S
C222        C223   1.409       .  A
C222        C721   1.414       .  A
C222        C505   1.493       .  S
C223        C224   1.402       .  A
C223        H226   1.084       .  S
C224       Br230   1.917       .  S
Br228      C1212   1.919       .  S
C231        C232   1.422       .  A
C231        C736   1.412       .  A
C231       C1031   1.496       .  S
C232        C233   1.396       .  A
C232      Br1248   1.927       .  S
C233        C234   1.401       .  A
C233        H237   1.084       .  S
C234        C735   1.409       .  A
C234        C238   1.488       .  S
C235        C236   1.403       .  A
C235        C734   1.408       .  A
C235       Br247   1.919   1_565  S
C236        C731   1.412       .  A
C236        H239   1.083       .  S
C238        C240   1.404       .  A
C238        C744   1.410       .  A
C240        C241   1.402       .  A
C240        H245   1.083       .  S
C241        C242   1.415       .  A
C241       Br249   1.920       .  S
C242        C743   1.403       .  A
C242        C502   1.494       .  S
C243        C244   1.397       .  A
C243        C742   1.404   1_545  A
C243        H246   1.077       .  S
C244        C738   1.409   1_545  A
C244       Br250   1.919       .  S
Br248      C1232   1.927       .  S
N251        N258   1.434       .  S
N251        C755   1.368       .  A
N251        C752   1.371       .  A
C252        N751   1.371       .  A
C252        C253   1.383       .  A
C252        C992   1.491       .  S
C253        C254   1.368       .  A
C253        H256   1.082       .  S
C254        C255   1.380       .  A
C254        H257   1.083       .  S
C255        N751   1.369       .  A
C255        C972   1.492       .  S
N258        C262   1.367       .  A
N258        C259   1.370       .  A
C259        C260   1.384       .  A
C259        C421   1.489       .  S
C260        C261   1.365       .  A
C260        H263   1.082       .  S
C261        C262   1.379       .  A
C261        H264   1.083       .  S
C262        C441   1.487       .  S
N265        N272   1.435       .  S
N265        C269   1.375       .  A
N265        C266   1.371       .  A
C266        C267   1.380       .  A
C266        C412   1.480       .  S
C267        C268   1.355       .  A
C267        H270   1.083       .  S
C268        C269   1.379       .  A
C268        H271   1.083       .  S
C269        C392   1.487       .  S
N272        C276   1.375       .  A
N272        C273   1.371       .  A
C273        C274   1.379       .  A
C273        C352   1.477       .  S
C274        C275   1.354       .  A
C274        H277   1.083       .  S
C275        C276   1.380       .  A
C275        H278   1.083       .  S
C276        C361   1.484       .  S
O279      Zr1291   2.460       .  S
O279       C1281   1.292       .  A
O280       Zr317   2.409       .  S
O280        C281   1.282       .  A
C281       C1481   1.495       .  S
C281       O1279   1.291       .  A
O282        C284   1.287       .  A
O283       Zr818   2.439   1_545  S
O283        C284   1.290       .  A
C284        C381   1.506       .  S
O285       Zr294   2.438       .  S
O285        C287   1.285       .  A
O286       Zr817   2.432   1_545  S
O286        C287   1.290       .  A
C287        C401   1.495       .  S
O288      Zr1041   2.450   1_556  S
O288       C1290   1.290       .  A
O289       Zr318   2.437       .  S
O289        C290   1.289       .  A
C290       C1461   1.491       .  S
C290       O1288   1.290       .  A
Zr291      O1279   2.461       .  S
Zr291      O1038   2.450       .  S
Zr291       O797   2.376       .  S
Zr291       O548   2.383       .  S
Zr291       O323   2.376       .  S
Zr291      O1792   2.435       .  S
Zr291      O1293   2.436       .  S
O292      Zr1791   2.434   1_545  S
O292        H335   0.990       .  S
O293      Zr1291   2.437       .  S
O293        H334   0.990       .  S
O293        H338   0.990       .  S
Zr294       O297   2.378       .  S
Zr294       O322   2.372       .  S
Zr294       O295   2.434       .  S
Zr294       O296   2.432       .  S
O295        H339   0.990       .  S
O296        H329   0.990       .  S
O297       Zr791   2.376   1_545  S
O297       Zr817   2.381   1_545  S
O298       Zr541   2.384   1_546  S
O298       Zr818   2.381   1_545  S
O298        H325   0.968       .  S
O299        C301   1.287       .  A
O300       Zr318   2.423       .  S
O300        C301   1.288       .  A
C301        C341   1.492       .  S
O302       Zr314   2.460       .  S
O302        C304   1.291       .  A
O303       Zr317   2.412       .  S
O303        C304   1.285       .  A
C304        C452   1.485       .  S
O305        C307   1.287       .  A
O306       Zr318   2.427       .  S
O306        C307   1.288       .  A
C307        C432   1.475       .  S
O308       Zr311   2.453       .  S
O308        C310   1.289       .  A
O309       Zr317   2.431       .  S
O309        C310   1.289       .  A
C310        C372   1.494       .  S
Zr311       O320   2.372       .  S
Zr311       O323   2.374       .  S
Zr311       O312   2.437       .  S
Zr311       O313   2.433       .  S
O312        H332   0.990       .  S
O312        H337   0.990       .  S
O313        H333   0.990       .  S
Zr314       O320   2.366       .  S
Zr314       O574   2.379       .  S
Zr314       O822   2.366       .  S
Zr314       O315   2.435       .  S
Zr314       O816   2.435       .  S
O315        H331   0.990       .  S
O316       Zr814   2.435   1_545  S
O316        H330   0.990       .  S
O316        H340   0.990       .  S
Zr317       O786   2.425       .  S
Zr317       O797   2.380       .  S
Zr317       O320   2.378       .  S
Zr317       O822   2.377       .  S
Zr317       O323   2.382       .  S
Zr318       O783   2.441       .  S
Zr318       O798   2.382       .  S
Zr318       O319   2.390       .  S
Zr318       O321   2.384       .  S
Zr318       O824   2.378       .  S
O319        H327   0.960       .  S
O322       Zr814   2.367   1_545  S
O322       Zr817   2.380   1_545  S
O322        H326   0.969       .  S
O323        H328   0.962       .  S
O324       Zr564   2.379   1_546  S
O324       Zr818   2.376   1_545  S
C341        C342   1.421       .  A
C341        C346   1.408       .  A
C342        C343   1.403       .  A
C342       Br358   1.922       .  S
C343        C344   1.398       .  A
C343        H347   1.084       .  S
C344        C345   1.406       .  A
C344        C348   1.475       .  S
C345        C346   1.395       .  A
C345       Br357   1.921       .  S
C346        H349   1.083       .  S
C348        C350   1.400       .  A
C348        C354   1.406       .  A
C350        C351   1.397       .  A
C350        H355   1.084       .  S
C351        C352   1.411       .  A
C351       Br359   1.920       .  S
C352        C353   1.404       .  A
C353        C354   1.400       .  A
C353        H356   1.082       .  S
C354       Br360   1.917       .  S
C361        C362   1.413       .  A
C361        C366   1.407       .  A
C362        C363   1.405       .  A
C362       Br378   1.916       .  S
C363        C364   1.404       .  A
C363        H367   1.083       .  S
C364        C365   1.406       .  A
C364        C368   1.483       .  S
C365        C366   1.398       .  A
C365       Br377   1.919       .  S
C366        H369   1.083       .  S
C368        C370   1.400       .  A
C368        C374   1.408       .  A
C370        C371   1.405       .  A
C370        H375   1.083       .  S
C371        C372   1.420       .  A
C371       Br379   1.920       .  S
C372        C373   1.408       .  A
C373        C374   1.399       .  A
C373        H376   1.083       .  S
C374       Br380   1.920       .  S
C381        C382   1.426       .  A
C381        C386   1.411       .  A
C382        C383   1.406       .  A
C382       Br398   1.922       .  S
C383        C384   1.400       .  A
C383        H387   1.084       .  S
C384        C385   1.406       .  A
C384        C388   1.486       .  S
C385        C386   1.400       .  A
C385       Br397   1.920       .  S
C386        H389   1.083       .  S
C388        C390   1.404       .  A
C388        C394   1.407       .  A
C390        C391   1.405       .  A
C390        H395   1.083       .  S
C391        C392   1.412       .  A
C391       Br399   1.915       .  S
C392        C393   1.407       .  A
C393        C394   1.398       .  A
C393        H396   1.083       .  S
C394       Br400   1.918       .  S
C401        C402   1.424       .  A
C401        C406   1.409       .  A
C402        C403   1.402       .  A
C402       Br418   1.922       .  S
C403        C404   1.399       .  A
C403        H407   1.084       .  S
C404        C405   1.407       .  A
C404        C408   1.479       .  S
C405        C406   1.395       .  A
C405       Br417   1.920       .  S
C406        H409   1.083       .  S
C408        C410   1.400       .  A
C408        C414   1.408       .  A
C410        C411   1.396       .  A
C410        H415   1.084       .  S
C411        C412   1.412       .  A
C411       Br419   1.920       .  S
C412        C413   1.405       .  A
C413        C414   1.402       .  A
C413        H416   1.080       .  S
C414       Br420   1.918       .  S
C421        C422   1.415       .  A
C421        C426   1.404       .  A
C422        C423   1.401       .  A
C422       Br938   1.920       .  S
C423        C424   1.402       .  A
C423        H927   1.083       .  S
C424        C425   1.403       .  A
C424        C428   1.475       .  S
C425        C426   1.394       .  A
C425       Br437   1.919       .  S
C426        H429   1.075       .  S
H427        C923   1.083       .  S
C428        C430   1.402       .  A
C428        C934   1.407       .  A
C430        C431   1.403       .  A
C430        H435   1.083       .  S
C431        C432   1.413       .  A
C431       Br439   1.919       .  S
C432        C933   1.402       .  A
C433        C932   1.402   1_545  A
C433        C434   1.395       .  A
C433        H436   1.084       .  S
C434        C928   1.408       .  A
C434       Br440   1.919       .  S
Br438       C922   1.920       .  S
C441        C442   1.415       .  A
C441        C446   1.408       .  A
C442        C443   1.397       .  A
C442       Br458   1.912       .  S
C443        C444   1.398       .  A
C443        H447   1.084       .  S
C444        C445   1.405       .  A
C444        C448   1.476       .  S
C445        C446   1.399       .  A
C445       Br957   1.917       .  S
C446        H949   1.084       .  S
C448        C950   1.400       .  A
C448        C454   1.406       .  A
H449        C946   1.084       .  S
C450        C948   1.400   1_565  A
C450        C451   1.402       .  A
C450        H455   1.084       .  S
C451        C952   1.415       .  A
C451       Br459   1.919       .  S
C452        C951   1.415       .  A
C452        C453   1.408       .  A
C453        C454   1.397       .  A
C453        H456   1.084       .  S
C454       Br460   1.920       .  S
Br457       C945   1.917       .  S
C461        C462   1.415       .  A
C461        C966   1.410       .  A
C461       C1290   1.489       .  S
C462        C463   1.398       .  A
C462      Br1478   1.920       .  S
C463        C464   1.400       .  A
C463        H467   1.084       .  S
C464        C965   1.406       .  A
C464        C468   1.481       .  S
C465        C964   1.407   1_545  A
C465        C466   1.406       .  A
C465       Br477   1.918       .  S
C466        C961   1.410   1_545  A
C466        H469   1.083       .  S
C468        C970   1.400       .  A
C468        C474   1.406       .  A
C470        C968   1.401   1_545  A
C470        C471   1.401   1_545  A
C470        H475   1.084       .  S
C471        C972   1.414       .  A
C471       Br479   1.913   1_565  S
C472        C971   1.414       .  A
C472        C473   1.408       .  A
C472        C755   1.490       .  S
C473        C474   1.401       .  A
C473        H476   1.084       .  S
C474       Br480   1.917       .  S
Br478      C1462   1.919       .  S
C481        C482   1.422       .  A
C481        C986   1.411       .  A
C481       C1281   1.495       .  S
C482        C483   1.396       .  A
C482      Br1498   1.927       .  S
C483        C484   1.401       .  A
C483        H487   1.084       .  S
C484        C985   1.407       .  A
C484        C488   1.486       .  S
C485        C984   1.408       .  A
C485        C486   1.403       .  A
C485       Br497   1.919       .  S
C486        C981   1.411       .  A
C486        H489   1.083       .  S
C488        C490   1.404       .  A
C488        C994   1.409       .  A
C490        C491   1.402       .  A
C490        H495   1.083       .  S
C491        C492   1.415       .  A
C491       Br499   1.920       .  S
C492        C993   1.403       .  A
C492        C752   1.492       .  S
C493        C992   1.403   1_545  A
C493        C494   1.396       .  A
C493        H496   1.077       .  S
C494        C988   1.410   1_545  A
C494       Br500   1.919       .  S
Br498      C1482   1.927       .  S
N501        N508   1.433   1_565  S
C502        C503   1.384       .  A
C503        C504   1.368       .  A
C503        H506   1.082       .  S
C504        C505   1.379       .  A
C504        H507   1.083       .  S
N508        C512   1.368       .  A
N508        C509   1.369       .  A
C509        C510   1.384       .  A
C509        C671   1.488       .  S
C510        C511   1.366       .  A
C510        H513   1.082       .  S
C511        C512   1.379       .  A
C511        H514   1.083       .  S
C512        C691   1.489       .  S
N515        N522   1.435       .  S
N515        C519   1.376       .  A
N515        C516   1.371       .  A
C516        C517   1.380       .  A
C516        C662   1.479       .  S
C517        C518   1.355       .  A
C517        H520   1.083       .  S
C518        C519   1.380       .  A
C518        H521   1.083       .  S
C519        C642   1.489       .  S
N522        C526   1.376       .  A
N522        C523   1.371       .  A
C523        C524   1.379       .  A
C523        C602   1.478       .  S
C524        C525   1.354       .  A
C524        H527   1.083       .  S
C525        C526   1.380       .  A
C525        H528   1.083       .  S
C526        C611   1.487       .  S
O529      Zr1541   2.455       .  S
O529       C1531   1.291       .  A
O530       Zr567   2.405       .  S
O530        C531   1.281       .  A
C531       C1731   1.495       .  S
C531       O1529   1.292       .  A
O532       Zr794   2.448       .  S
O532        C534   1.287       .  A
O533        C534   1.291       .  A
C534        C631   1.506       .  S
O535       Zr544   2.435       .  S
O535        C537   1.284       .  A
O536        C537   1.289       .  A
C537        C651   1.494       .  S
O538      Zr1791   2.451       .  S
O538       C1540   1.290       .  A
O539       Zr568   2.436       .  S
O539        C540   1.289       .  A
C540       C1711   1.490       .  S
C540       O1538   1.290       .  A
Zr541      O1529   2.461       .  S
Zr541      O1788   2.451   1_554  S
Zr541       O821   2.376   1_554  S
Zr541       O573   2.376       .  S
Zr541      O1042   2.434   1_565  S
Zr541      O1543   2.436       .  S
O542      Zr1041   2.433       .  S
O542        H585   0.990       .  S
O543      Zr1541   2.437       .  S
O543        H584   0.990       .  S
O543        H588   0.990       .  S
Zr544       O782   2.450   1_554  S
Zr544       O798   2.371   1_554  S
Zr544       O547   2.378       .  S
Zr544       O572   2.372       .  S
Zr544       O824   2.368   1_554  S
Zr544       O545   2.434       .  S
Zr544       O546   2.432       .  S
O545        H836   0.990       .  S
O545        H589   0.990       .  S
O546        H579   0.990       .  S
O548       Zr794   2.373       .  S
O548        H575   0.968       .  S
O549       Zr811   2.448       .  S
O549        C551   1.288       .  A
O550       Zr568   2.423       .  S
O550        C551   1.288       .  A
C551        C591   1.493       .  S
O552       Zr564   2.456       .  S
O552        C554   1.290       .  A
O553       Zr567   2.411       .  S
O553        C554   1.285       .  A
C554        C702   1.484       .  S
O555       Zr814   2.443       .  S
O555        C557   1.288       .  A
O556       Zr568   2.422       .  S
O556        C557   1.287       .  A
C557        C682   1.473       .  S
O558       Zr561   2.452       .  S
O558        C560   1.289       .  A
O559       Zr567   2.435       .  S
O559        C560   1.290       .  A
C560        C622   1.497       .  S
Zr561       O799   2.448   1_554  S
Zr561       O819   2.375   1_554  S
Zr561       O570   2.373       .  S
Zr561       O573   2.375       .  S
Zr561       O821   2.376   1_554  S
Zr561       O562   2.436       .  S
Zr561       O563   2.434       .  S
O562        H582   0.990       .  S
O562        H587   0.990       .  S
O563        H583   0.990       .  S
Zr564       O805   2.441   1_554  S
Zr564       O570   2.366       .  S
Zr564       O819   2.370   1_554  S
Zr564       O565   2.434       .  S
O565        H581   0.990       .  S
O566        H580   0.990       .  S
O566        H590   0.990       .  S
Zr567       O570   2.377       .  S
Zr567       O573   2.383       .  S
Zr568       O569   2.391       .  S
Zr568       O571   2.383       .  S
O569       Zr811   2.373       .  S
O569       Zr814   2.368       .  S
O569        H577   0.961       .  S
O571       Zr791   2.376       .  S
O571       Zr811   2.378       .  S
O572        H576   0.969       .  S
O573        H578   0.962       .  S
O574       Zr794   2.365       .  S
H586        O795   0.990       .  S
C591        C592   1.421       .  A
C591        C596   1.409       .  A
C592        C593   1.404       .  A
C592       Br608   1.921       .  S
C593        C594   1.399       .  A
C593        H597   1.083       .  S
C594        C595   1.406       .  A
C594        C598   1.477       .  S
C595        C596   1.395       .  A
C595       Br607   1.921       .  S
C596        H599   1.083       .  S
C598        C600   1.400       .  A
C598        C604   1.407       .  A
C600        C601   1.397       .  A
C600        H605   1.084       .  S
C601        C602   1.411       .  A
C601       Br609   1.920       .  S
C602        C603   1.404       .  A
C603        C604   1.401       .  A
C603        H606   1.081       .  S
C604       Br610   1.916       .  S
C611        C612   1.413       .  A
C611        C616   1.407       .  A
C612        C613   1.406       .  A
C612       Br628   1.916       .  S
C613        C614   1.404       .  A
C613        H617   1.083       .  S
C614        C615   1.406       .  A
C614        C618   1.487       .  S
C615        C616   1.399       .  A
C615       Br627   1.919       .  S
C616        H619   1.083       .  S
C618        C620   1.401       .  A
C618        C624   1.408       .  A
C620        C621   1.407       .  A
C620        H625   1.083       .  S
C621        C622   1.421       .  A
C621       Br629   1.920       .  S
C622        C623   1.408       .  A
C623        C624   1.400       .  A
C623        H626   1.083       .  S
C624       Br630   1.920       .  S
C631        C632   1.426       .  A
C631        C636   1.411       .  A
C632        C633   1.407       .  A
C632       Br648   1.922       .  S
C633        C634   1.400       .  A
C633        H637   1.084       .  S
C634        C635   1.406       .  A
C634        C638   1.487       .  S
C635        C636   1.400       .  A
C635       Br647   1.919       .  S
C636        H639   1.083       .  S
C638        C640   1.404       .  A
C638        C644   1.407       .  A
C640        C641   1.405       .  A
C640        H645   1.083       .  S
C641        C642   1.413       .  A
C641       Br649   1.915       .  S
C642        C643   1.408       .  A
C643        C644   1.400       .  A
C643        H646   1.083       .  S
C644       Br650   1.918       .  S
C651        C652   1.424       .  A
C651        C656   1.408       .  A
C652        C653   1.402       .  A
C652       Br668   1.923       .  S
C653        C654   1.399       .  A
C653        H657   1.084       .  S
C654        C655   1.407       .  A
C654        C658   1.479       .  S
C655        C656   1.394       .  A
C655       Br667   1.920       .  S
C656        H659   1.083       .  S
C658        C660   1.400       .  A
C658        C664   1.408       .  A
C660        C661   1.396       .  A
C660        H665   1.084       .  S
C661        C662   1.411       .  A
C661       Br669   1.920       .  S
C662        C663   1.405       .  A
C663        C664   1.401       .  A
C663        H666   1.080       .  S
C664       Br670   1.918       .  S
C671        C672   1.414       .  A
C671        C676   1.404   1_545  A
C672        C673   1.402       .  A
C673        C674   1.403       .  A
C674        C675   1.403   1_545  A
C674        C678   1.475       .  S
C675        C676   1.394       .  A
C675       Br687   1.919       .  S
C676        H679   1.076       .  S
C678        C680   1.403   1_545  A
C680        C681   1.402       .  A
C680        H685   1.083       .  S
C681        C682   1.411       .  A
C681       Br689   1.919       .  S
C683        C684   1.396       .  A
C683        H686   1.084       .  S
C684       Br690   1.919       .  S
C691        C692   1.415   1_545  A
C691        C696   1.408       .  A
C692        C693   1.397       .  A
C692       Br708   1.912       .  S
C693        C694   1.398   1_565  A
C693        H697   1.084       .  S
C694        C695   1.405       .  A
C694        C698   1.476       .  S
C695        C696   1.400       .  A
C698        C704   1.406       .  A
C700        C701   1.403       .  A
C700        H705   1.084       .  S
C701       Br709   1.920       .  S
C702        C703   1.407   1_565  A
C703        C704   1.397       .  A
C703        H706   1.084       .  S
C704       Br710   1.920       .  S
C711        C712   1.415       .  A
C711       C1540   1.491       .  S
C712        C713   1.398       .  A
C712      Br1728   1.920       .  S
C713        C714   1.401       .  A
C713        H717   1.084       .  S
C714        C718   1.485       .  S
C715        C716   1.406       .  A
C715       Br727   1.918       .  S
C716        H719   1.083       .  S
C718        C724   1.407       .  A
C720        C721   1.400       .  A
C720        H725   1.084       .  S
C721       Br729   1.912       .  S
C722        C723   1.409       .  A
C723        C724   1.403       .  A
C723        H726   1.083       .  S
C724       Br730   1.917       .  S
Br728      C1712   1.919       .  S
C731        C732   1.421       .  A
C731       C1531   1.496       .  S
C732        C733   1.397       .  A
C732      Br1748   1.927       .  S
C733        C734   1.401       .  A
C733        H737   1.084       .  S
C734        C738   1.487       .  S
C735        C736   1.404       .  A
C735       Br747   1.918       .  S
C736        H739   1.083       .  S
C738        C740   1.404       .  A
C740        C741   1.402       .  A
C740        H745   1.083       .  S
C741        C742   1.416       .  A
C741       Br749   1.919       .  S
C743        C744   1.397       .  A
C743        H746   1.077       .  S
C744       Br750   1.919       .  S
Br748      C1732   1.928       .  S
N751        N758   1.433   1_565  S
C752        C753   1.384       .  A
C753        C754   1.367       .  A
C753        H756   1.082       .  S
C754        C755   1.379       .  A
C754        H757   1.083       .  S
N758        C762   1.368       .  A
N758        C759   1.369       .  A
C759        C760   1.384       .  A
C759        C921   1.487       .  S
C760        C761   1.365       .  A
C760        H763   1.082       .  S
C761        C762   1.379       .  A
C761        H764   1.083       .  S
C762        C941   1.487       .  S
N765        N772   1.435       .  S
N765        C769   1.375       .  A
N765        C766   1.372       .  A
C766        C767   1.380       .  A
C766        C912   1.481       .  S
C767        C768   1.355       .  A
C767        H770   1.083       .  S
C768        C769   1.380       .  A
C768        H771   1.083       .  S
C769        C892   1.488       .  S
N772        C776   1.375       .  A
N772        C773   1.372       .  A
C773        C774   1.380       .  A
C773        C852   1.478       .  S
C774        C775   1.355       .  A
C774        H777   1.083       .  S
C775        C776   1.379       .  A
C775        H778   1.083       .  S
C776        C861   1.485       .  S
O779      Zr1791   2.458       .  S
O779       C1781   1.292       .  A
O780       Zr817   2.411       .  S
O780        C781   1.282       .  A
C781       C1981   1.496       .  S
C781       O1779   1.291       .  A
O782        C784   1.287       .  A
O783        C784   1.291       .  A
C784        C881   1.507       .  S
O785       Zr794   2.435       .  S
O785        C787   1.284       .  A
O786        C787   1.288       .  A
C787        C901   1.493       .  S
O788      Zr1541   2.453   1_556  S
O788       C1790   1.290       .  A
O789       Zr818   2.428       .  S
O789        C790   1.288       .  A
C790       C1961   1.488       .  S
C790       O1788   1.290       .  A
Zr791      O1779   2.458       .  S
Zr791      O1538   2.450       .  S
Zr791       O823   2.377       .  S
Zr791      O1292   2.435   1_565  S
Zr791      O1793   2.437       .  S
O792      Zr1291   2.434       .  S
O792        H835   0.990       .  S
O793      Zr1791   2.436       .  S
O793        H834   0.990       .  S
O793        H838   0.990       .  S
Zr794       O797   2.380       .  S
Zr794       O822   2.370       .  S
Zr794       O795   2.434       .  S
Zr794       O796   2.435       .  S
O795        H839   0.990       .  S
O796        H829   0.990       .  S
O798        H825   0.968       .  S
O799        C801   1.288       .  A
O800       Zr818   2.421       .  S
O800        C801   1.287       .  A
C801        C841   1.492       .  S
O802       Zr814   2.457       .  S
O802        C804   1.290       .  A
O803       Zr817   2.410       .  S
O803        C804   1.285       .  A
C804        C952   1.484       .  S
O805        C807   1.287       .  A
O806       Zr818   2.420       .  S
O806        C807   1.286       .  A
C807        C932   1.472       .  S
O808       Zr811   2.452       .  S
O808        C810   1.289       .  A
O809       Zr817   2.441       .  S
O809        C810   1.291       .  A
C810        C872   1.498       .  S
Zr811       O820   2.371       .  S
Zr811       O823   2.375       .  S
Zr811       O812   2.436       .  S
Zr811       O813   2.434       .  S
O812        H832   0.990       .  S
O812        H837   0.990       .  S
O813        H833   0.990       .  S
Zr814       O820   2.365       .  S
Zr814       O815   2.435       .  S
O815        H831   0.990       .  S
O816        H830   0.990       .  S
O816        H840   0.990       .  S
Zr817       O820   2.377       .  S
Zr817       O823   2.383       .  S
Zr818       O819   2.392       .  S
Zr818       O821   2.385       .  S
O819        H827   0.961       .  S
O822        H826   0.969       .  S
O823        H828   0.962       .  S
C841        C842   1.421       .  A
C841        C846   1.409       .  A
C842        C843   1.403       .  A
C842       Br858   1.921       .  S
C843        C844   1.399       .  A
C843        H847   1.083       .  S
C844        C845   1.406       .  A
C844        C848   1.477       .  S
C845        C846   1.396       .  A
C845       Br857   1.921       .  S
C846        H849   1.083       .  S
C848        C850   1.400       .  A
C848        C854   1.406       .  A
C850        C851   1.397       .  A
C850        H855   1.084       .  S
C851        C852   1.412       .  A
C851       Br859   1.920       .  S
C852        C853   1.404       .  A
C853        C854   1.400       .  A
C853        H856   1.081       .  S
C854       Br860   1.916       .  S
C861        C862   1.412       .  A
C861        C866   1.406       .  A
C862        C863   1.406       .  A
C862       Br878   1.916       .  S
C863        C864   1.404       .  A
C863        H867   1.083       .  S
C864        C865   1.406       .  A
C864        C868   1.486       .  S
C865        C866   1.398       .  A
C865       Br877   1.918       .  S
C866        H869   1.083       .  S
C868        C870   1.400       .  A
C868        C874   1.408       .  A
C870        C871   1.406       .  A
C870        H875   1.083       .  S
C871        C872   1.421       .  A
C871       Br879   1.920       .  S
C872        C873   1.408       .  A
C873        C874   1.401       .  A
C873        H876   1.083       .  S
C874       Br880   1.920       .  S
C881        C882   1.426       .  A
C881        C886   1.411       .  A
C882        C883   1.407       .  A
C882       Br898   1.922       .  S
C883        C884   1.400       .  A
C883        H887   1.084       .  S
C884        C885   1.406       .  A
C884        C888   1.487       .  S
C885        C886   1.400       .  A
C885       Br897   1.920       .  S
C886        H889   1.083       .  S
C888        C890   1.404       .  A
C888        C894   1.407       .  A
C890        C891   1.406       .  A
C890        H895   1.083       .  S
C891        C892   1.413       .  A
C891       Br899   1.915       .  S
C892        C893   1.407       .  A
C893        C894   1.399       .  A
C893        H896   1.083       .  S
C894       Br900   1.918       .  S
C901        C902   1.424       .  A
C901        C906   1.408       .  A
C902        C903   1.402       .  A
C902       Br918   1.923       .  S
C903        C904   1.400       .  A
C903        H907   1.084       .  S
C904        C905   1.407       .  A
C904        C908   1.479       .  S
C905        C906   1.394       .  A
C905       Br917   1.920       .  S
C906        H909   1.083       .  S
C908        C910   1.400       .  A
C908        C914   1.408       .  A
C910        C911   1.396       .  A
C910        H915   1.084       .  S
C911        C912   1.412       .  A
C911       Br919   1.920       .  S
C912        C913   1.405       .  A
C913        C914   1.402       .  A
C913        H916   1.080       .  S
C914       Br920   1.918       .  S
C921        C922   1.414       .  A
C921        C926   1.404   1_545  A
C922        C923   1.400       .  A
C923        C924   1.402       .  A
C924        C925   1.404   1_545  A
C924        C928   1.474       .  S
C925        C926   1.394       .  A
C925       Br937   1.919       .  S
C926        H929   1.076       .  S
C928        C930   1.402   1_545  A
C930        C931   1.401       .  A
C930        H935   1.083       .  S
C931        C932   1.411       .  A
C931       Br939   1.919       .  S
C933        C934   1.395       .  A
C933        H936   1.084       .  S
C934       Br940   1.918       .  S
C941        C942   1.415   1_545  A
C941        C946   1.408       .  A
C942        C943   1.396       .  A
C942       Br958   1.912       .  S
C943        C944   1.398   1_565  A
C943        H947   1.084       .  S
C944        C945   1.405       .  A
C944        C948   1.474       .  S
C945        C946   1.399       .  A
C948        C954   1.406       .  A
C950        C951   1.402       .  A
C950        H955   1.084       .  S
C951       Br959   1.919       .  S
C952        C953   1.407   1_565  A
C953        C954   1.396       .  A
C953        H956   1.084       .  S
C954       Br960   1.921       .  S
C961        C962   1.415       .  A
C961       C1790   1.490       .  S
C962        C963   1.398       .  A
C962      Br1978   1.919       .  S
C963        C964   1.400       .  A
C963        H967   1.084       .  S
C964        C968   1.483       .  S
C965        C966   1.405       .  A
C965       Br977   1.918       .  S
C966        H969   1.083       .  S
C968        C974   1.406       .  A
C970        C971   1.399       .  A
C970        H975   1.084       .  S
C971       Br979   1.913       .  S
C972        C973   1.409       .  A
C973        C974   1.401       .  A
C973        H976   1.084       .  S
C974       Br980   1.917       .  S
Br978      C1962   1.920       .  S
C981        C982   1.422       .  A
C981       C1781   1.496       .  S
C982        C983   1.396       .  A
C982      Br1998   1.927       .  S
C983        C984   1.401       .  A
C983        H987   1.084       .  S
C984        C988   1.487       .  S
C985        C986   1.402       .  A
C985       Br997   1.918       .  S
C986        H989   1.083       .  S
C988        C990   1.404       .  A
C990        C991   1.401       .  A
C990        H995   1.083       .  S
C991        C992   1.415       .  A
C991       Br999   1.920       .  S
C993        C994   1.396       .  A
C993        H996   1.077       .  S
C994      Br1000   1.919       .  S
Br998      C1982   1.927       .  S
N1001      N1008   1.433       .  S
N1001      C1505   1.370       .  A
N1001      C1502   1.371       .  A
C1002      N1501   1.370       .  A
C1002      C1003   1.384       .  A
C1002      C1742   1.491       .  S
C1003      C1004   1.368       .  A
C1003      H1006   1.082       .  S
C1004      C1005   1.379       .  A
C1004      H1007   1.083       .  S
C1005      N1501   1.369       .  A
C1005      C1722   1.491       .  S
N1008      C1012   1.368       .  A
N1008      C1009   1.369       .  A
C1009      C1010   1.384       .  A
C1009      C1171   1.488       .  S
C1010      C1011   1.367       .  A
C1010      H1013   1.082       .  S
C1011      C1012   1.380       .  A
C1011      H1014   1.083       .  S
C1012      C1191   1.489       .  S
N1015      N1022   1.435       .  S
N1015      C1019   1.376       .  A
N1015      C1016   1.371       .  A
C1016      C1017   1.380       .  A
C1016      C1162   1.479       .  S
C1017      C1018   1.355       .  A
C1017      H1020   1.083       .  S
C1018      C1019   1.380       .  A
C1018      H1021   1.083       .  S
C1019      C1142   1.487       .  S
N1022      C1026   1.376       .  A
N1022      C1023   1.371       .  A
C1023      C1024   1.379       .  A
C1023      C1102   1.478       .  S
C1024      C1025   1.354       .  A
C1024      H1027   1.083       .  S
C1025      C1026   1.380       .  A
C1025      H1028   1.083       .  S
C1026      C1111   1.486       .  S
O1030     Zr1067   2.407   1_455  S
O1030      C1031   1.281       .  A
O1032     Zr1294   2.450       .  S
O1032      C1034   1.287       .  A
O1033     Zr1568   2.443   1_545  S
O1033      C1034   1.291       .  A
C1034      C1131   1.508       .  S
O1035     Zr1044   2.433       .  S
O1035      C1037   1.284       .  A
O1036     Zr1567   2.430   1_545  S
O1036      C1037   1.290       .  A
C1037      C1151   1.493       .  S
O1039     Zr1068   2.435       .  S
O1039      C1040   1.289   1_655  A
Zr1041     O1547   2.376   1_455  S
Zr1041     O1798   2.386   1_454  S
Zr1041     O1321   2.375   1_454  S
Zr1041     O1073   2.375   1_455  S
O1042      H1085   0.990       .  S
O1043      H1084   0.990       .  S
O1043      H1088   0.990       .  S
Zr1044     O1282   2.450   1_554  S
Zr1044     O1298   2.370   1_554  S
Zr1044     O1047   2.377       .  S
Zr1044     O1072   2.373       .  S
Zr1044     O1324   2.365   1_554  S
Zr1044     O1045   2.434   1_655  S
Zr1044     O1046   2.432       .  S
O1045      H1336   0.990   1_455  S
O1045      H1089   0.990       .  S
O1046      H1079   0.990       .  S
O1047     Zr1541   2.375   1_645  S
O1047     Zr1567   2.378   1_545  S
O1048     Zr1791   2.386   1_645  S
O1048     Zr1294   2.371       .  S
O1048     Zr1568   2.380   1_545  S
O1048      H1075   0.968   1_655  S
O1049     Zr1311   2.446       .  S
O1049      C1051   1.287       .  A
O1050     Zr1068   2.422       .  S
O1050      C1051   1.288       .  A
C1051      C1091   1.492       .  S
O1052     Zr1064   2.454       .  S
O1052      C1054   1.290       .  A
O1053     Zr1067   2.413       .  S
O1053      C1054   1.285       .  A
C1054      C1202   1.483       .  S
O1055     Zr1314   2.441       .  S
O1055      C1057   1.287       .  A
O1056     Zr1068   2.423       .  S
O1056      C1057   1.287       .  A
C1057      C1182   1.472       .  S
O1058     Zr1061   2.453       .  S
O1058      C1060   1.289       .  A
O1059     Zr1067   2.435       .  S
O1059      C1060   1.290       .  A
C1060      C1122   1.495       .  S
Zr1061     O1299   2.445   1_554  S
Zr1061     O1319   2.374   1_554  S
Zr1061     O1070   2.372       .  S
Zr1061     O1073   2.373       .  S
Zr1061     O1321   2.376   1_554  S
Zr1061     O1062   2.437       .  S
Zr1061     O1063   2.434       .  S
O1062      H1082   0.990   1_554  S
O1062      H1087   0.990       .  S
O1063      H1083   0.990   1_655  S
Zr1064     O1305   2.439   1_554  S
Zr1064     O1070   2.365       .  S
Zr1064     O1319   2.369   1_554  S
Zr1064     O1824   2.379   1_554  S
Zr1064     O1572   2.366       .  S
Zr1064     O1065   2.435       .  S
Zr1064     O1566   2.435       .  S
O1065      H1081   0.990       .  S
O1066     Zr1564   2.436   1_545  S
O1066      H1080   0.990       .  S
O1066      H1090   0.990       .  S
Zr1067     O1536   2.428       .  S
Zr1067     O1547   2.380       .  S
Zr1067     O1070   2.377       .  S
Zr1067     O1572   2.376       .  S
Zr1067     O1073   2.382       .  S
Zr1068     O1533   2.439       .  S
Zr1068     O1548   2.380       .  S
Zr1068     O1069   2.392       .  S
Zr1068     O1071   2.383       .  S
Zr1068     O1574   2.378       .  S
O1069     Zr1311   2.374       .  S
O1069     Zr1314   2.369       .  S
O1069      H1077   0.961       .  S
O1071     Zr1291   2.376   1_655  S
O1071     Zr1311   2.376       .  S
O1072     Zr1564   2.367   1_545  S
O1072     Zr1567   2.379   1_545  S
O1072      H1076   0.969       .  S
O1073      H1078   0.962       .  S
O1074     Zr1294   2.368       .  S
O1074     Zr1814   2.380   1_545  S
O1074     Zr1568   2.376   1_545  S
H1086      O1295   0.990   1_655  S
C1091      C1092   1.421       .  A
C1091      C1096   1.408       .  A
C1092      C1093   1.403       .  A
C1092     Br1108   1.922       .  S
C1093      C1094   1.399       .  A
C1093      H1097   1.083       .  S
C1094      C1095   1.406       .  A
C1094      C1098   1.476       .  S
C1095      C1096   1.395       .  A
C1095     Br1107   1.921       .  S
C1096      H1099   1.083       .  S
C1098      C1100   1.400       .  A
C1098      C1104   1.407       .  A
C1100      C1101   1.397       .  A
C1100      H1105   1.084       .  S
C1101      C1102   1.411       .  A
C1101     Br1109   1.920       .  S
C1102      C1103   1.404       .  A
C1103      C1104   1.401       .  A
C1103      H1106   1.082       .  S
C1104     Br1110   1.917       .  S
C1111      C1112   1.412       .  A
C1111      C1116   1.407       .  A
C1112      C1113   1.405       .  A
C1112     Br1128   1.916       .  S
C1113      C1114   1.404       .  A
C1113      H1117   1.083       .  S
C1114      C1115   1.407       .  A
C1114      C1118   1.485       .  S
C1115      C1116   1.399       .  A
C1115     Br1127   1.919       .  S
C1116      H1119   1.083       .  S
C1118      C1120   1.401       .  A
C1118      C1124   1.408       .  A
C1120      C1121   1.406       .  A
C1120      H1125   1.083       .  S
C1121      C1122   1.420       .  A
C1121     Br1129   1.920       .  S
C1122      C1123   1.408       .  A
C1123      C1124   1.400       .  A
C1123      H1126   1.083       .  S
C1124     Br1130   1.920       .  S
C1131      C1132   1.426       .  A
C1131      C1136   1.411       .  A
C1132      C1133   1.407       .  A
C1132     Br1148   1.922       .  S
C1133      C1134   1.400       .  A
C1133      H1137   1.084       .  S
C1134      C1135   1.406       .  A
C1134      C1138   1.487       .  S
C1135      C1136   1.401       .  A
C1135     Br1147   1.920       .  S
C1136      H1139   1.083       .  S
C1138      C1140   1.404       .  A
C1138      C1144   1.407       .  A
C1140      C1141   1.405       .  A
C1140      H1145   1.083       .  S
C1141      C1142   1.412       .  A
C1141     Br1149   1.915       .  S
C1142      C1143   1.407       .  A
C1143      C1144   1.399       .  A
C1143      H1146   1.083       .  S
C1144     Br1150   1.918       .  S
C1151      C1152   1.424       .  A
C1151      C1156   1.408       .  A
C1152      C1153   1.402       .  A
C1152     Br1168   1.923       .  S
C1153      C1154   1.399       .  A
C1153      H1157   1.084       .  S
C1154      C1155   1.407       .  A
C1154      C1158   1.478       .  S
C1155      C1156   1.394       .  A
C1155     Br1167   1.919       .  S
C1156      H1159   1.083       .  S
C1158      C1160   1.400       .  A
C1158      C1164   1.408       .  A
C1160      C1161   1.396       .  A
C1160      H1165   1.084       .  S
C1161      C1162   1.411       .  A
C1161     Br1169   1.920       .  S
C1162      C1163   1.405       .  A
C1163      C1164   1.402       .  A
C1163      H1166   1.081       .  S
C1164     Br1170   1.918       .  S
C1171      C1172   1.414       .  A
C1171      C1176   1.404       .  A
C1172      C1173   1.401       .  A
C1172     Br1688   1.920       .  S
C1173      C1174   1.403       .  A
C1173      H1677   1.083       .  S
C1174      C1175   1.403       .  A
C1174      C1178   1.475       .  S
C1175      C1176   1.394       .  A
C1175     Br1187   1.919       .  S
C1176      H1179   1.075       .  S
H1177      C1673   1.083       .  S
C1178      C1180   1.403       .  A
C1178      C1684   1.407       .  A
C1180      C1181   1.402       .  A
C1180      H1185   1.083       .  S
C1181      C1182   1.411       .  A
C1181     Br1189   1.919       .  S
C1182      C1683   1.401       .  A
C1183      C1682   1.402   1_545  A
C1183      C1184   1.395       .  A
C1183      H1186   1.084       .  S
C1184      C1678   1.407   1_545  A
C1184     Br1190   1.919       .  S
Br1188     C1672   1.920       .  S
C1191      C1192   1.415       .  A
C1191      C1196   1.408       .  A
C1192      C1193   1.397       .  A
C1192     Br1208   1.911       .  S
C1193      C1194   1.397       .  A
C1193      H1197   1.084       .  S
C1194      C1195   1.405       .  A
C1194      C1198   1.476       .  S
C1195      C1196   1.400       .  A
C1195     Br1707   1.917       .  S
C1196      H1699   1.084       .  S
C1198      C1700   1.401       .  A
C1198      C1204   1.406       .  A
H1199      C1696   1.084       .  S
C1200      C1698   1.401   1_565  A
C1200      C1201   1.403       .  A
C1200      H1205   1.084       .  S
C1201      C1702   1.415       .  A
C1201     Br1209   1.919       .  S
C1202      C1701   1.415       .  A
C1202      C1203   1.407       .  A
C1203      C1204   1.396       .  A
C1203      H1206   1.084       .  S
C1204     Br1210   1.920       .  S
Br1207     C1695   1.917       .  S
C1211      C1212   1.414       .  A
C1211      C1716   1.411       .  A
C1212      C1213   1.399       .  A
C1213      C1214   1.401       .  A
C1213      H1217   1.084       .  S
C1214      C1715   1.407       .  A
C1214      C1218   1.484       .  S
C1215      C1714   1.406       .  A
C1215      C1216   1.405   1_565  A
C1215     Br1227   1.918   1_565  S
C1216      C1711   1.411   1_545  A
C1216      H1219   1.083       .  S
C1218      C1720   1.400       .  A
C1218      C1224   1.407       .  A
C1220      C1718   1.401   1_545  A
C1220      C1221   1.400   1_545  A
C1220      H1225   1.084       .  S
C1221      C1722   1.414       .  A
C1221     Br1229   1.912   1_565  S
C1222      C1721   1.414       .  A
C1222      C1223   1.409       .  A
C1222      C1505   1.495       .  S
C1223      C1224   1.403       .  A
C1223      H1226   1.084       .  S
C1224     Br1230   1.917       .  S
C1231      C1232   1.422       .  A
C1231      C1736   1.410       .  A
C1232      C1233   1.397       .  A
C1233      C1234   1.401       .  A
C1233      H1237   1.084       .  S
C1234      C1735   1.408       .  A
C1234      C1238   1.486       .  S
C1235      C1734   1.408       .  A
C1235      C1236   1.403       .  A
C1235     Br1247   1.918   1_565  S
C1236      C1731   1.411       .  A
C1236      H1239   1.083   1_565  S
C1238      C1240   1.403       .  A
C1238      C1744   1.409       .  A
C1240      C1241   1.402       .  A
C1240      H1245   1.083       .  S
C1241      C1242   1.416       .  A
C1241     Br1249   1.919       .  S
C1242      C1743   1.404       .  A
C1242      C1502   1.494       .  S
C1243      C1742   1.403   1_545  A
C1243      C1244   1.396       .  A
C1243      H1246   1.077       .  S
C1244      C1738   1.409   1_545  A
C1244     Br1250   1.919       .  S
N1251      N1258   1.433       .  S
N1251      C1755   1.369       .  A
N1251      C1752   1.371       .  A
C1252      N1751   1.371       .  A
C1252      C1253   1.384       .  A
C1252      C1992   1.494       .  S
C1253      C1254   1.369       .  A
C1253      H1256   1.082       .  S
C1254      C1255   1.379       .  A
C1254      H1257   1.083       .  S
C1255      N1751   1.369       .  A
C1255      C1972   1.494       .  S
N1258      C1262   1.368       .  A
N1258      C1259   1.370       .  A
C1259      C1260   1.384       .  A
C1259      C1421   1.488       .  S
C1260      C1261   1.366       .  A
C1260      H1263   1.082       .  S
C1261      C1262   1.379       .  A
C1261      H1264   1.083       .  S
C1262      C1441   1.488       .  S
N1265      N1272   1.435       .  S
N1265      C1269   1.376       .  A
N1265      C1266   1.371       .  A
C1266      C1267   1.380       .  A
C1266      C1412   1.482       .  S
C1267      C1268   1.355       .  A
C1267      H1270   1.083       .  S
C1268      C1269   1.380       .  A
C1268      H1271   1.083       .  S
C1269      C1392   1.490       .  S
N1272      C1276   1.375       .  A
N1272      C1273   1.370       .  A
C1273      C1274   1.379       .  A
C1273      C1352   1.476       .  S
C1274      C1275   1.355       .  A
C1274      H1277   1.083       .  S
C1275      C1276   1.380       .  A
C1275      H1278   1.083       .  S
C1276      C1361   1.485       .  S
O1280     Zr1317   2.407   1_455  S
O1280      C1281   1.282       .  A
O1282      C1284   1.287       .  A
O1283     Zr1818   2.440   1_545  S
O1283      C1284   1.291       .  A
C1284      C1381   1.507       .  S
O1285     Zr1294   2.439       .  S
O1285      C1287   1.285       .  A
O1286     Zr1817   2.431   1_545  S
O1286      C1287   1.290       .  A
C1287      C1401   1.496       .  S
O1289     Zr1318   2.433       .  S
O1289      C1290   1.288   1_655  A
Zr1291     O1797   2.376   1_455  S
Zr1291     O1548   2.382   1_455  S
Zr1291     O1323   2.377   1_455  S
O1292      H1335   0.990       .  S
O1293      H1334   0.990       .  S
O1293      H1338   0.990       .  S
Zr1294     O1297   2.378       .  S
Zr1294     O1322   2.371       .  S
Zr1294     O1295   2.434   1_655  S
Zr1294     O1296   2.432       .  S
O1295      H1339   0.990       .  S
O1296      H1329   0.990       .  S
O1297     Zr1791   2.378   1_645  S
O1297     Zr1817   2.380   1_545  S
O1298     Zr1541   2.384   1_646  S
O1298     Zr1818   2.379   1_545  S
O1298      H1325   0.969   1_655  S
O1299      C1301   1.287       .  A
O1300     Zr1318   2.419       .  S
O1300      C1301   1.287       .  A
C1301      C1341   1.489       .  S
O1302     Zr1314   2.455       .  S
O1302      C1304   1.290       .  A
O1303     Zr1317   2.416       .  S
O1303      C1304   1.286       .  A
C1304      C1452   1.486       .  S
O1305      C1307   1.287       .  A
O1306     Zr1318   2.424       .  S
O1306      C1307   1.287       .  A
C1307      C1432   1.473       .  S
O1308     Zr1311   2.452       .  S
O1308      C1310   1.289       .  A
O1309     Zr1317   2.433       .  S
O1309      C1310   1.289       .  A
C1310      C1372   1.496       .  S
Zr1311     O1320   2.372       .  S
Zr1311     O1323   2.371       .  S
Zr1311     O1312   2.436       .  S
Zr1311     O1313   2.434       .  S
O1312      H1332   0.990       .  S
O1312      H1337   0.990       .  S
O1313      H1333   0.990   1_655  S
Zr1314     O1320   2.366       .  S
Zr1314     O1574   2.379       .  S
Zr1314     O1822   2.367       .  S
Zr1314     O1315   2.434       .  S
Zr1314     O1816   2.435       .  S
O1315      H1331   0.990       .  S
O1316     Zr1814   2.435   1_545  S
O1316      H1330   0.990       .  S
O1316      H1340   0.990       .  S
Zr1317     O1786   2.430       .  S
Zr1317     O1797   2.379       .  S
Zr1317     O1320   2.378       .  S
Zr1317     O1822   2.377       .  S
Zr1317     O1323   2.384       .  S
Zr1318     O1783   2.440       .  S
Zr1318     O1798   2.382       .  S
Zr1318     O1319   2.392       .  S
Zr1318     O1321   2.383       .  S
Zr1318     O1824   2.374       .  S
O1319      H1327   0.961       .  S
O1322     Zr1814   2.366   1_545  S
O1322     Zr1817   2.377   1_545  S
O1322      H1326   0.969       .  S
O1323      H1328   0.962       .  S
O1324     Zr1564   2.380   1_546  S
O1324     Zr1818   2.377   1_545  S
C1341      C1342   1.420       .  A
C1341      C1346   1.408       .  A
C1342      C1343   1.403       .  A
C1342     Br1358   1.921       .  S
C1343      C1344   1.398       .  A
C1343      H1347   1.083       .  S
C1344      C1345   1.405       .  A
C1344      C1348   1.474       .  S
C1345      C1346   1.394       .  A
C1345     Br1357   1.921       .  S
C1346      H1349   1.083       .  S
C1348      C1350   1.400       .  A
C1348      C1354   1.406       .  A
C1350      C1351   1.396       .  A
C1350      H1355   1.084       .  S
C1351      C1352   1.411       .  A
C1351     Br1359   1.920       .  S
C1352      C1353   1.404       .  A
C1353      C1354   1.400       .  A
C1353      H1356   1.082       .  S
C1354     Br1360   1.917       .  S
C1361      C1362   1.412       .  A
C1361      C1366   1.407       .  A
C1362      C1363   1.405       .  A
C1362     Br1378   1.916       .  S
C1363      C1364   1.404       .  A
C1363      H1367   1.083       .  S
C1364      C1365   1.406       .  A
C1364      C1368   1.485       .  S
C1365      C1366   1.398       .  A
C1365     Br1377   1.919       .  S
C1366      H1369   1.083       .  S
C1368      C1370   1.400       .  A
C1368      C1374   1.408       .  A
C1370      C1371   1.406       .  A
C1370      H1375   1.083       .  S
C1371      C1372   1.421       .  A
C1371     Br1379   1.921       .  S
C1372      C1373   1.408       .  A
C1373      C1374   1.400       .  A
C1373      H1376   1.083       .  S
C1374     Br1380   1.920       .  S
C1381      C1382   1.426       .  A
C1381      C1386   1.411       .  A
C1382      C1383   1.407       .  A
C1382     Br1398   1.923       .  S
C1383      C1384   1.400       .  A
C1383      H1387   1.084       .  S
C1384      C1385   1.407       .  A
C1384      C1388   1.489       .  S
C1385      C1386   1.401       .  A
C1385     Br1397   1.920       .  S
C1386      H1389   1.083       .  S
C1388      C1390   1.404       .  A
C1388      C1394   1.407       .  A
C1390      C1391   1.406       .  A
C1390      H1395   1.083       .  S
C1391      C1392   1.413       .  A
C1391     Br1399   1.914       .  S
C1392      C1393   1.408       .  A
C1393      C1394   1.400       .  A
C1393      H1396   1.083       .  S
C1394     Br1400   1.918       .  S
C1401      C1402   1.424       .  A
C1401      C1406   1.409       .  A
C1402      C1403   1.402       .  A
C1402     Br1418   1.922       .  S
C1403      C1404   1.399       .  A
C1403      H1407   1.084       .  S
C1404      C1405   1.407       .  A
C1404      C1408   1.480       .  S
C1405      C1406   1.396       .  A
C1405     Br1417   1.920       .  S
C1406      H1409   1.083       .  S
C1408      C1410   1.400       .  A
C1408      C1414   1.408       .  A
C1410      C1411   1.396       .  A
C1410      H1415   1.084       .  S
C1411      C1412   1.412       .  A
C1411     Br1419   1.920       .  S
C1412      C1413   1.405       .  A
C1413      C1414   1.402       .  A
C1413      H1416   1.080       .  S
C1414     Br1420   1.918       .  S
C1421      C1422   1.415       .  A
C1421      C1426   1.404       .  A
C1422      C1423   1.401       .  A
C1422     Br1938   1.920       .  S
C1423      C1424   1.402       .  A
C1423      H1927   1.083       .  S
C1424      C1425   1.403       .  A
C1424      C1428   1.474       .  S
C1425      C1426   1.395       .  A
C1425     Br1437   1.919       .  S
C1426      H1429   1.075       .  S
H1427      C1923   1.083       .  S
C1428      C1430   1.402       .  A
C1428      C1934   1.407       .  A
C1430      C1431   1.402       .  A
C1430      H1435   1.083       .  S
C1431      C1432   1.412       .  A
C1431     Br1439   1.919       .  S
C1432      C1933   1.402       .  A
C1433      C1932   1.402   1_545  A
C1433      C1434   1.395       .  A
C1433      H1436   1.084       .  S
C1434      C1928   1.407       .  A
C1434     Br1440   1.918       .  S
Br1438     C1922   1.920       .  S
C1441      C1442   1.415       .  A
C1441      C1446   1.408       .  A
C1442      C1443   1.397       .  A
C1442     Br1458   1.912       .  S
C1443      C1444   1.398       .  A
C1443      H1447   1.084       .  S
C1444      C1445   1.405       .  A
C1444      C1448   1.477       .  S
C1445      C1446   1.400       .  A
C1445     Br1957   1.917       .  S
C1446      H1949   1.084       .  S
C1448      C1950   1.401       .  A
C1448      C1454   1.406       .  A
H1449      C1946   1.084       .  S
C1450      C1948   1.401   1_565  A
C1450      C1451   1.402       .  A
C1450      H1455   1.084       .  S
C1451      C1952   1.415       .  A
C1451     Br1459   1.919       .  S
C1452      C1951   1.416       .  A
C1452      C1453   1.407       .  A
C1453      C1454   1.396       .  A
C1453      H1456   1.084       .  S
C1454     Br1460   1.920       .  S
Br1457     C1945   1.917       .  S
C1461      C1462   1.415       .  A
C1461      C1966   1.411       .  A
C1462      C1463   1.398       .  A
C1463      C1464   1.400       .  A
C1463      H1467   1.084       .  S
C1464      C1965   1.407       .  A
C1464      C1468   1.484       .  S
C1465      C1964   1.407   1_545  A
C1465      C1466   1.405       .  A
C1465     Br1477   1.917       .  S
C1466      C1961   1.410   1_545  A
C1466      H1469   1.083       .  S
C1468      C1970   1.401       .  A
C1468      C1474   1.407       .  A
C1470      C1968   1.400   1_545  A
C1470      C1471   1.400   1_545  A
C1470      H1475   1.084       .  S
C1471      C1972   1.414       .  A
C1471     Br1479   1.912   1_565  S
C1472      C1971   1.414       .  A
C1472      C1473   1.409       .  A
C1472      C1755   1.494       .  S
C1473      C1474   1.402       .  A
C1473      H1476   1.084       .  S
C1474     Br1480   1.917       .  S
C1481      C1482   1.422       .  A
C1481      C1986   1.411       .  A
C1482      C1483   1.397       .  A
C1483      C1484   1.401       .  A
C1483      H1487   1.084       .  S
C1484      C1985   1.408       .  A
C1484      C1488   1.486       .  S
C1485      C1984   1.408       .  A
C1485      C1486   1.404       .  A
C1485     Br1497   1.918   1_565  S
C1486      C1981   1.412       .  A
C1486      H1489   1.083   1_565  S
C1488      C1490   1.403       .  A
C1488      C1994   1.409       .  A
C1490      C1491   1.402       .  A
C1490      H1495   1.083       .  S
C1491      C1492   1.416       .  A
C1491     Br1499   1.920       .  S
C1492      C1993   1.403       .  A
C1492      C1752   1.494       .  S
C1493      C1992   1.403   1_545  A
C1493      C1494   1.396       .  A
C1493      H1496   1.077       .  S
C1494      C1988   1.409   1_545  A
C1494     Br1500   1.919       .  S
N1501      N1508   1.433   1_565  S
C1502      C1503   1.384       .  A
C1503      C1504   1.368       .  A
C1503      H1506   1.082       .  S
C1504      C1505   1.379       .  A
C1504      H1507   1.083       .  S
N1508      C1512   1.368       .  A
N1508      C1509   1.369       .  A
C1509      C1510   1.384       .  A
C1509      C1671   1.487       .  S
C1510      C1511   1.365       .  A
C1510      H1513   1.082       .  S
C1511      C1512   1.379       .  A
C1511      H1514   1.083       .  S
C1512      C1691   1.488       .  S
N1515      N1522   1.435       .  S
N1515      C1519   1.376       .  A
N1515      C1516   1.372       .  A
C1516      C1517   1.380       .  A
C1516      C1662   1.482       .  S
C1517      C1518   1.355       .  A
C1517      H1520   1.083       .  S
C1518      C1519   1.379       .  A
C1518      H1521   1.083       .  S
C1519      C1642   1.489       .  S
N1522      C1526   1.375       .  A
N1522      C1523   1.371       .  A
C1523      C1524   1.380       .  A
C1523      C1602   1.478       .  S
C1524      C1525   1.355       .  A
C1524      H1527   1.083       .  S
C1525      C1526   1.380       .  A
C1525      H1528   1.083       .  S
C1526      C1611   1.484       .  S
O1530     Zr1567   2.412   1_455  S
O1530      C1531   1.282       .  A
O1532     Zr1794   2.449       .  S
O1532      C1534   1.287       .  A
O1533      C1534   1.290       .  A
C1534      C1631   1.506       .  S
O1535     Zr1544   2.437       .  S
O1535      C1537   1.285       .  A
O1536      C1537   1.289       .  A
C1537      C1651   1.495       .  S
O1539     Zr1568   2.434       .  S
O1539      C1540   1.289   1_655  A
Zr1541     O1821   2.375   1_454  S
Zr1541     O1573   2.377   1_455  S
O1542      H1585   0.990       .  S
O1543      H1584   0.990       .  S
O1543      H1588   0.990       .  S
Zr1544     O1782   2.452   1_554  S
Zr1544     O1798   2.373   1_554  S
Zr1544     O1547   2.379       .  S
Zr1544     O1572   2.373       .  S
Zr1544     O1824   2.365   1_554  S
Zr1544     O1545   2.436   1_655  S
Zr1544     O1546   2.435       .  S
O1545      H1836   0.990       .  S
O1545      H1589   0.989   1_454  S
O1546      H1579   0.990       .  S
O1548     Zr1794   2.372       .  S
O1548      H1575   0.968   1_655  S
O1549     Zr1811   2.445       .  S
O1549      C1551   1.287       .  A
O1550     Zr1568   2.418       .  S
O1550      C1551   1.287       .  A
C1551      C1591   1.489       .  S
O1552     Zr1564   2.458       .  S
O1552      C1554   1.290       .  A
O1553     Zr1567   2.413       .  S
O1553      C1554   1.286       .  A
C1554      C1702   1.485       .  S
O1555     Zr1814   2.443       .  S
O1555      C1557   1.288       .  A
O1556     Zr1568   2.421       .  S
O1556      C1557   1.286       .  A
C1557      C1682   1.473       .  S
O1558     Zr1561   2.456       .  S
O1558      C1560   1.290       .  A
O1559     Zr1567   2.435       .  S
O1559      C1560   1.290       .  A
C1560      C1622   1.497       .  S
Zr1561     O1799   2.450   1_554  S
Zr1561     O1819   2.373   1_554  S
Zr1561     O1570   2.372       .  S
Zr1561     O1573   2.374       .  S
Zr1561     O1821   2.377   1_554  S
Zr1561     O1562   2.436       .  S
Zr1561     O1563   2.433       .  S
O1562      H1582   0.990       .  S
O1562      H1587   0.990       .  S
O1563      H1583   0.990   1_655  S
Zr1564     O1805   2.441   1_554  S
Zr1564     O1570   2.364       .  S
Zr1564     O1819   2.370   1_554  S
Zr1564     O1565   2.435       .  S
O1565      H1581   0.990       .  S
O1566      H1580   0.990       .  S
O1566      H1590   0.990       .  S
Zr1567     O1570   2.376       .  S
Zr1567     O1573   2.383       .  S
Zr1568     O1569   2.394       .  S
Zr1568     O1571   2.384       .  S
O1569     Zr1811   2.376       .  S
O1569     Zr1814   2.368       .  S
O1569      H1577   0.961       .  S
O1571     Zr1791   2.373   1_655  S
O1571     Zr1811   2.376       .  S
O1572      H1576   0.969       .  S
O1573      H1578   0.962       .  S
O1574     Zr1794   2.368       .  S
H1586      O1795   0.990   1_655  S
C1591      C1592   1.421       .  A
C1591      C1596   1.408       .  A
C1592      C1593   1.403       .  A
C1592     Br1608   1.921       .  S
C1593      C1594   1.399       .  A
C1593      H1597   1.083       .  S
C1594      C1595   1.405       .  A
C1594      C1598   1.475       .  S
C1595      C1596   1.394       .  A
C1595     Br1607   1.921       .  S
C1596      H1599   1.083       .  S
C1598      C1600   1.400       .  A
C1598      C1604   1.407       .  A
C1600      C1601   1.396       .  A
C1600      H1605   1.084       .  S
C1601      C1602   1.411       .  A
C1601     Br1609   1.920       .  S
C1602      C1603   1.404       .  A
C1603      C1604   1.401       .  A
C1603      H1606   1.081       .  S
C1604     Br1610   1.917       .  S
C1611      C1612   1.412       .  A
C1611      C1616   1.407       .  A
C1612      C1613   1.405       .  A
C1612     Br1628   1.916       .  S
C1613      C1614   1.403       .  A
C1613      H1617   1.083       .  S
C1614      C1615   1.406       .  A
C1614      C1618   1.484       .  S
C1615      C1616   1.399       .  A
C1615     Br1627   1.919       .  S
C1616      H1619   1.083       .  S
C1618      C1620   1.400       .  A
C1618      C1624   1.408       .  A
C1620      C1621   1.405       .  A
C1620      H1625   1.083       .  S
C1621      C1622   1.420       .  A
C1621     Br1629   1.920       .  S
C1622      C1623   1.409       .  A
C1623      C1624   1.401       .  A
C1623      H1626   1.083       .  S
C1624     Br1630   1.921       .  S
C1631      C1632   1.426       .  A
C1631      C1636   1.411       .  A
C1632      C1633   1.407       .  A
C1632     Br1648   1.923       .  S
C1633      C1634   1.400       .  A
C1633      H1637   1.084       .  S
C1634      C1635   1.406       .  A
C1634      C1638   1.487       .  S
C1635      C1636   1.400       .  A
C1635     Br1647   1.920       .  S
C1636      H1639   1.083       .  S
C1638      C1640   1.404       .  A
C1638      C1644   1.406       .  A
C1640      C1641   1.406       .  A
C1640      H1645   1.083       .  S
C1641      C1642   1.413       .  A
C1641     Br1649   1.915       .  S
C1642      C1643   1.408       .  A
C1643      C1644   1.399       .  A
C1643      H1646   1.083       .  S
C1644     Br1650   1.918       .  S
C1651      C1652   1.424       .  A
C1651      C1656   1.408       .  A
C1652      C1653   1.403       .  A
C1652     Br1668   1.923       .  S
C1653      C1654   1.400       .  A
C1653      H1657   1.084       .  S
C1654      C1655   1.407       .  A
C1654      C1658   1.481       .  S
C1655      C1656   1.395       .  A
C1655     Br1667   1.919       .  S
C1656      H1659   1.083       .  S
C1658      C1660   1.400       .  A
C1658      C1664   1.408       .  A
C1660      C1661   1.397       .  A
C1660      H1665   1.084       .  S
C1661      C1662   1.413       .  A
C1661     Br1669   1.921       .  S
C1662      C1663   1.405       .  A
C1663      C1664   1.403       .  A
C1663      H1666   1.081       .  S
C1664     Br1670   1.918       .  S
C1671      C1672   1.414       .  A
C1671      C1676   1.404   1_545  A
C1672      C1673   1.401       .  A
C1673      C1674   1.402       .  A
C1674      C1675   1.403   1_545  A
C1674      C1678   1.474   1_545  S
C1675      C1676   1.394       .  A
C1675     Br1687   1.919       .  S
C1676      H1679   1.076       .  S
C1678      C1680   1.402       .  A
C1680      C1681   1.402       .  A
C1680      H1685   1.083       .  S
C1681      C1682   1.411       .  A
C1681     Br1689   1.919       .  S
C1683      C1684   1.395       .  A
C1683      H1686   1.084       .  S
C1684     Br1690   1.919       .  S
C1691      C1692   1.415   1_545  A
C1691      C1696   1.408       .  A
C1692      C1693   1.397       .  A
C1692     Br1708   1.912       .  S
C1693      C1694   1.398   1_565  A
C1693      H1697   1.084       .  S
C1694      C1695   1.405       .  A
C1694      C1698   1.475       .  S
C1695      C1696   1.399       .  A
C1698      C1704   1.405       .  A
C1700      C1701   1.403       .  A
C1700      H1705   1.084       .  S
C1701     Br1709   1.919       .  S
C1702      C1703   1.407   1_565  A
C1703      C1704   1.396       .  A
C1703      H1706   1.084       .  S
C1704     Br1710   1.920       .  S
C1711      C1712   1.415       .  A
C1712      C1713   1.398       .  A
C1713      C1714   1.400       .  A
C1713      H1717   1.084       .  S
C1714      C1718   1.482       .  S
C1715      C1716   1.406       .  A
C1715     Br1727   1.918       .  S
C1716      H1719   1.083       .  S
C1718      C1724   1.406       .  A
C1720      C1721   1.401       .  A
C1720      H1725   1.084       .  S
C1721     Br1729   1.912       .  S
C1722      C1723   1.408       .  A
C1723      C1724   1.401       .  A
C1723      H1726   1.084       .  S
C1724     Br1730   1.917       .  S
C1731      C1732   1.423       .  A
C1732      C1733   1.397       .  A
C1733      C1734   1.401       .  A
C1733      H1737   1.084       .  S
C1734      C1738   1.486       .  S
C1735      C1736   1.402       .  A
C1735     Br1747   1.918       .  S
C1736      H1739   1.083       .  S
C1738      C1740   1.404       .  A
C1740      C1741   1.402       .  A
C1740      H1745   1.083       .  S
C1741      C1742   1.415       .  A
C1741     Br1749   1.920       .  S
C1743      C1744   1.397       .  A
C1743      H1746   1.077       .  S
C1744     Br1750   1.919       .  S
N1751      N1758   1.433   1_565  S
C1752      C1753   1.384       .  A
C1753      C1754   1.369       .  A
C1753      H1756   1.082       .  S
C1754      C1755   1.379       .  A
C1754      H1757   1.083       .  S
N1758      C1762   1.368       .  A
N1758      C1759   1.369       .  A
C1759      C1760   1.384       .  A
C1759      C1921   1.488       .  S
C1760      C1761   1.366       .  A
C1760      H1763   1.082       .  S
C1761      C1762   1.379       .  A
C1761      H1764   1.083       .  S
C1762      C1941   1.488       .  S
N1765      N1772   1.435       .  S
N1765      C1769   1.375       .  A
N1765      C1766   1.371       .  A
C1766      C1767   1.380       .  A
C1766      C1912   1.480       .  S
C1767      C1768   1.355       .  A
C1767      H1770   1.083       .  S
C1768      C1769   1.380       .  A
C1768      H1771   1.083       .  S
C1769      C1892   1.488       .  S
N1772      C1776   1.374       .  A
N1772      C1773   1.370       .  A
C1773      C1774   1.379       .  A
C1773      C1852   1.476       .  S
C1774      C1775   1.354       .  A
C1774      H1777   1.083       .  S
C1775      C1776   1.380       .  A
C1775      H1778   1.083       .  S
C1776      C1861   1.484       .  S
O1780     Zr1817   2.409   1_455  S
O1780      C1781   1.282       .  A
O1782      C1784   1.287       .  A
O1783      C1784   1.290       .  A
C1784      C1881   1.507       .  S
O1785     Zr1794   2.439       .  S
O1785      C1787   1.285       .  A
O1786      C1787   1.289       .  A
C1787      C1901   1.496       .  S
O1789     Zr1818   2.435       .  S
O1789      C1790   1.289   1_655  A
Zr1791     O1823   2.376   1_455  S
O1792      H1835   0.990       .  S
O1793      H1834   0.990       .  S
O1793      H1838   0.990       .  S
Zr1794     O1797   2.377       .  S
Zr1794     O1822   2.372       .  S
Zr1794     O1795   2.434   1_655  S
Zr1794     O1796   2.432       .  S
O1795      H1839   0.990       .  S
O1796      H1829   0.990       .  S
O1798      H1825   0.969   1_655  S
O1799      C1801   1.288       .  A
O1800     Zr1818   2.420       .  S
O1800      C1801   1.287       .  A
C1801      C1841   1.492       .  S
O1802     Zr1814   2.456       .  S
O1802      C1804   1.290       .  A
O1803     Zr1817   2.411       .  S
O1803      C1804   1.285       .  A
C1804      C1952   1.484       .  S
O1805      C1807   1.287       .  A
O1806     Zr1818   2.422       .  S
O1806      C1807   1.287       .  A
C1807      C1932   1.472       .  S
O1808     Zr1811   2.453       .  S
O1808      C1810   1.289       .  A
O1809     Zr1817   2.436       .  S
O1809      C1810   1.290       .  A
C1810      C1872   1.496       .  S
Zr1811     O1820   2.373       .  S
Zr1811     O1823   2.373       .  S
Zr1811     O1812   2.438       .  S
Zr1811     O1813   2.434       .  S
O1812      H1832   0.990       .  S
O1812      H1837   0.990       .  S
O1813      H1833   0.990   1_655  S
Zr1814     O1820   2.366       .  S
Zr1814     O1815   2.435       .  S
O1815      H1831   0.990       .  S
O1816      H1830   0.990       .  S
O1816      H1840   0.990       .  S
Zr1817     O1820   2.378       .  S
Zr1817     O1823   2.384       .  S
Zr1818     O1819   2.391       .  S
Zr1818     O1821   2.383       .  S
O1819      H1827   0.961       .  S
O1822      H1826   0.969       .  S
O1823      H1828   0.962       .  S
C1841      C1842   1.421       .  A
C1841      C1846   1.409       .  A
C1842      C1843   1.402       .  A
C1842     Br1858   1.920       .  S
C1843      C1844   1.398       .  A
C1843      H1847   1.084       .  S
C1844      C1845   1.405       .  A
C1844      C1848   1.474       .  S
C1845      C1846   1.395       .  A
C1845     Br1857   1.922       .  S
C1846      H1849   1.083       .  S
C1848      C1850   1.400       .  A
C1848      C1854   1.406       .  A
C1850      C1851   1.396       .  A
C1850      H1855   1.084       .  S
C1851      C1852   1.411       .  A
C1851     Br1859   1.920       .  S
C1852      C1853   1.404       .  A
C1853      C1854   1.400       .  A
C1853      H1856   1.081       .  S
C1854     Br1860   1.917       .  S
C1861      C1862   1.413       .  A
C1861      C1866   1.406       .  A
C1862      C1863   1.406       .  A
C1862     Br1878   1.916       .  S
C1863      C1864   1.404       .  A
C1863      H1867   1.083       .  S
C1864      C1865   1.406       .  A
C1864      C1868   1.485       .  S
C1865      C1866   1.398       .  A
C1865     Br1877   1.918       .  S
C1866      H1869   1.083       .  S
C1868      C1870   1.400       .  A
C1868      C1874   1.408       .  A
C1870      C1871   1.406       .  A
C1870      H1875   1.083       .  S
C1871      C1872   1.421       .  A
C1871     Br1879   1.920       .  S
C1872      C1873   1.408       .  A
C1873      C1874   1.400       .  A
C1873      H1876   1.083       .  S
C1874     Br1880   1.920       .  S
C1881      C1882   1.426       .  A
C1881      C1886   1.411       .  A
C1882      C1883   1.407       .  A
C1882     Br1898   1.922       .  S
C1883      C1884   1.400       .  A
C1883      H1887   1.084       .  S
C1884      C1885   1.406       .  A
C1884      C1888   1.487       .  S
C1885      C1886   1.400       .  A
C1885     Br1897   1.920       .  S
C1886      H1889   1.083       .  S
C1888      C1890   1.404       .  A
C1888      C1894   1.407       .  A
C1890      C1891   1.405       .  A
C1890      H1895   1.083       .  S
C1891      C1892   1.413       .  A
C1891     Br1899   1.914       .  S
C1892      C1893   1.407       .  A
C1893      C1894   1.399       .  A
C1893      H1896   1.083       .  S
C1894     Br1900   1.918       .  S
C1901      C1902   1.424       .  A
C1901      C1906   1.409       .  A
C1902      C1903   1.402       .  A
C1902     Br1918   1.922       .  S
C1903      C1904   1.399       .  A
C1903      H1907   1.084       .  S
C1904      C1905   1.407       .  A
C1904      C1908   1.480       .  S
C1905      C1906   1.395       .  A
C1905     Br1917   1.920       .  S
C1906      H1909   1.083       .  S
C1908      C1910   1.401       .  A
C1908      C1914   1.408       .  A
C1910      C1911   1.396       .  A
C1910      H1915   1.084       .  S
C1911      C1912   1.411       .  A
C1911     Br1919   1.920       .  S
C1912      C1913   1.405       .  A
C1913      C1914   1.402       .  A
C1913      H1916   1.080       .  S
C1914     Br1920   1.918       .  S
C1921      C1922   1.414       .  A
C1921      C1926   1.404   1_545  A
C1922      C1923   1.401       .  A
C1923      C1924   1.403       .  A
C1924      C1925   1.403   1_545  A
C1924      C1928   1.475       .  S
C1925      C1926   1.394       .  A
C1925     Br1937   1.919       .  S
C1926      H1929   1.075       .  S
C1928      C1930   1.403   1_545  A
C1930      C1931   1.402       .  A
C1930      H1935   1.083       .  S
C1931      C1932   1.411       .  A
C1931     Br1939   1.919       .  S
C1933      C1934   1.395       .  A
C1933      H1936   1.084       .  S
C1934     Br1940   1.918       .  S
C1941      C1942   1.415   1_545  A
C1941      C1946   1.408       .  A
C1942      C1943   1.397       .  A
C1942     Br1958   1.911       .  S
C1943      C1944   1.398   1_565  A
C1943      H1947   1.084       .  S
C1944      C1945   1.405       .  A
C1944      C1948   1.475       .  S
C1945      C1946   1.399       .  A
C1948      C1954   1.406       .  A
C1950      C1951   1.403       .  A
C1950      H1955   1.084       .  S
C1951     Br1959   1.919       .  S
C1952      C1953   1.407   1_565  A
C1953      C1954   1.396       .  A
C1953      H1956   1.084       .  S
C1954     Br1960   1.920       .  S
C1961      C1962   1.415       .  A
C1962      C1963   1.398       .  A
C1963      C1964   1.401       .  A
C1963      H1967   1.084       .  S
C1964      C1968   1.482       .  S
C1965      C1966   1.407       .  A
C1965     Br1977   1.918       .  S
C1966      H1969   1.083       .  S
C1968      C1974   1.407       .  A
C1970      C1971   1.400       .  A
C1970      H1975   1.084       .  S
C1971     Br1979   1.912       .  S
C1972      C1973   1.409       .  A
C1973      C1974   1.402       .  A
C1973      H1976   1.083       .  S
C1974     Br1980   1.917       .  S
C1981      C1982   1.422       .  A
C1982      C1983   1.397       .  A
C1983      C1984   1.401       .  A
C1983      H1987   1.084       .  S
C1984      C1988   1.487       .  S
C1985      C1986   1.403       .  A
C1985     Br1997   1.918       .  S
C1986      H1989   1.083       .  S
C1988      C1990   1.404       .  A
C1990      C1991   1.403       .  A
C1990      H1995   1.083       .  S
C1991      C1992   1.416       .  A
C1991     Br1999   1.920       .  S
C1993      C1994   1.396       .  A
C1993      H1996   1.077       .  S
C1994     Br2000   1.919       .  S
