geometry optimzed in LAMMPS
_audit_creation_date              2020-11-30 
_audit_creation_method            'lammps2cif' 
_symmetry_space_group_name_H-M    'P1' 
_symmetry_Int_Tables_number       1 
_symmetry_cell_setting            triclinic 
loop_ 
_symmetry_equiv_pos_as_xyz 
  x,y,z 
_cell_length_a                    25.74048727 
_cell_length_b                    26.21292888996429 
_cell_length_c                    26.21522340261813 
_cell_angle_alpha                 89.85126005990138 
_cell_angle_beta                  89.6874142238368 
_cell_angle_gamma                 89.50069631749471 
loop_ 
_atom_site_label 
_atom_site_type_symbol 
_atom_site_fract_x 
_atom_site_fract_y 
_atom_site_fract_z 
_atom_site_charge 
C1          C  0.87159574  0.87000467  0.86016564    -0.03600
N2          N  0.76528117  0.92564686  0.41660553    -0.07300
N3          N  0.72645152  0.93642796  0.44873741    -0.59400
N4          N  0.81887015  0.96539662  0.30823545    -0.06900
N5          N  0.82293863  0.99805621  0.27076706    -0.61500
N6          N  0.78345774  0.93095154  0.29922888    -0.06500
N7          N  0.76258797  0.93940461  0.25454158    -0.59400
N8          N  0.80318123  0.95826764  0.42326166    -0.06200
N9          N  0.79116148  0.99115139  0.45982690    -0.61900
C10         C  0.74329303  0.97725884  0.47611554     0.94900
C11         C  0.78811957  0.98107508  0.23752269     0.94700
N12         N  0.97252757  0.93400343  0.31404871    -0.07500
N13         N  0.00992580  0.94756970  0.28177781    -0.60000
N14         N  0.92372240  0.95275975  0.43015523    -0.05600
N15         N  0.93487802  0.98893775  0.46223784    -0.61200
N16         N  0.96081454  0.91802420  0.42846601    -0.07500
N17         N  0.99857180  0.92984828  0.45938565    -0.60200
N18         N  0.93601545  0.96915478  0.31551505    -0.05200
N19         N  0.94739546  0.00705954  0.28383978    -0.61300
Mn20       Mn  0.86983396  0.96224577  0.37000860     1.18400
C21         C  0.99362903  0.99320991  0.26260119     0.97000
C22         C  0.98110274  0.97369810  0.47981331     0.97700
N23         N  0.77092248  0.81007567  0.28949299    -0.07500
N24         N  0.73168342  0.79647851  0.25984530    -0.63800
N25         N  0.80364970  0.76805483  0.40240341    -0.06300
N26         N  0.79225110  0.73111596  0.43417593    -0.64500
N27         N  0.76749466  0.80397668  0.40339860    -0.07000
N28         N  0.73055002  0.79249129  0.43585970    -0.64100
N29         N  0.80740242  0.77456227  0.28839714    -0.05900
N30         N  0.79363832  0.73679872  0.25781903    -0.64800
Mn31       Mn  0.76970892  0.86842580  0.35204589     1.10700
C32         C  0.74635263  0.75077668  0.23963445     0.98200
C33         C  0.74680440  0.74721618  0.45418641     0.98300
N34         N  0.96286105  0.79915438  0.41671090    -0.07000
N35         N  0.99595079  0.78576448  0.45300076    -0.62400
N36         N  0.92881308  0.78388665  0.29361601    -0.06300
N37         N  0.93412041  0.76309102  0.24851560    -0.59100
N38         N  0.96512979  0.81789263  0.30075000    -0.07600
N39         N  0.99615617  0.82073274  0.26115159    -0.62000
N40         N  0.92767167  0.76361795  0.41057782    -0.06600
N41         N  0.93681314  0.72508751  0.44247100    -0.59100
Mn42       Mn  0.96688912  0.86647963  0.36548134     1.20200
Mn43       Mn  0.86769956  0.77068447  0.34880276     1.10100
Cl44       Cl  0.86820208  0.86658809  0.35981827    -0.87100
C45         C  0.97955234  0.73937754  0.46906854     0.95200
C46         C  0.97629898  0.78644413  0.22892861     0.95000
N47         N  0.95739805  0.43313596  0.91771666    -0.07300
N48         N  0.99341498  0.46639698  0.92755962    -0.59400
N49         N  0.93519498  0.31877229  0.96647004    -0.06900
N50         N  0.94812986  0.28704055  0.00389277    -0.61500
N51         N  0.97109198  0.31838948  0.93065247    -0.06500
N52         N  0.00926145  0.28638664  0.94309506    -0.59400
N53         N  0.92131271  0.43340003  0.95339675    -0.06200
N54         N  0.93178627  0.46682291  0.98862927    -0.61900
C55         C  0.97638449  0.48663327  0.97146255     0.94900
C56         C  0.99421754  0.26654955  0.98869406     0.94700
N57         N  0.78165335  0.30204748  0.92785918    -0.07500
N58         N  0.75619206  0.26010129  0.93706742    -0.60000
N59         N  0.79996404  0.42511529  0.95985391    -0.05600
N60         N  0.78626711  0.46082231  0.99322089    -0.61200
N61         N  0.76281523  0.41843614  0.92636529    -0.07500
N62         N  0.72306849  0.44955610  0.93652376    -0.60200
N63         N  0.81629185  0.30968810  0.96354339    -0.05200
N64         N  0.81494614  0.27378188  0.99826724    -0.61300
Mn65       Mn  0.86790569  0.37230143  0.96214268     1.18400
C66         C  0.77797507  0.24298402  0.98058599     0.97000
C67         C  0.73846110  0.47649003  0.97793119     0.97700
N68         N  0.96575043  0.30991049  0.81294891    -0.07500
N69         N  0.99964089  0.27241316  0.81140365    -0.63800
N70         N  0.92680668  0.42114316  0.76363767    -0.06300
N71         N  0.93670899  0.45252909  0.72492029    -0.64500
N72         N  0.96235228  0.42609171  0.79904578    -0.07000
N73         N  0.99673063  0.46108042  0.78528194    -0.64100
N74         N  0.92919398  0.30390520  0.77880956    -0.05900
N75         N  0.93692047  0.26143817  0.75363983    -0.64800
Mn76       Mn  0.96556608  0.37220585  0.86478323     1.10700
C77         C  0.98064409  0.24233198  0.77478068     0.98200
C78         C  0.98012500  0.47792772  0.73912674     0.98300
N79         N  0.76793587  0.41290622  0.80798928    -0.07000
N80         N  0.73637011  0.45221710  0.80483342    -0.62400
N81         N  0.80728353  0.29822344  0.77084946    -0.06300
N82         N  0.79537908  0.26671726  0.73319296    -0.59100
N83         N  0.77155833  0.29637106  0.80684083    -0.07600
N84         N  0.73485737  0.26342992  0.79397372    -0.62000
N85         N  0.80469682  0.41530392  0.77303135    -0.06600
N86         N  0.79934181  0.45679926  0.74556406    -0.59100
Mn87       Mn  0.76897998  0.35668979  0.86739887     1.20200
Mn88       Mn  0.86707686  0.35948939  0.76950867     1.10100
Cl89       Cl  0.86726688  0.36524072  0.86581844    -0.87100
C90         C  0.75721458  0.47942674  0.76655543     0.95200
C91         C  0.75012411  0.24466055  0.74779242     0.95000
N92         N  0.41277326  0.76505090  0.93232081    -0.07300
N93         N  0.44556983  0.72696521  0.94190170    -0.59400
N94         N  0.30048773  0.82108458  0.96328518    -0.06900
N95         N  0.25970070  0.82475495  0.99303165    -0.61500
N96         N  0.29402444  0.78657195  0.92783830    -0.06500
N97         N  0.24807453  0.76617293  0.93248622    -0.59400
N98         N  0.41851889  0.80160217  0.96589698    -0.06200
N99         N  0.45553032  0.78927641  0.99878214    -0.61900
C100        C  0.47247559  0.74261352  0.98331081     0.94900
C101        C  0.22752391  0.78998214  0.97367472     0.94700
N102        N  0.31538499  0.97137648  0.93257861    -0.07500
N103        N  0.28351392  0.00985109  0.94428760    -0.60000
N104        N  0.42944895  0.91931881  0.96046088    -0.05600
N105        N  0.46194219  0.92899403  0.99720382    -0.61200
N106        N  0.43186520  0.95417864  0.92443816    -0.07500
N107        N  0.46611676  0.98865566  0.93545929    -0.60200
N108        N  0.31320375  0.93605796  0.96800659    -0.05200
N109        N  0.27970743  0.94943445  0.00413687    -0.61300
Mn110      Mn  0.36591472  0.86893838  0.96594038     1.18400
C111        C  0.26080459  0.99546858  0.98903934     0.97000
C112        C  0.48407162  0.97188433  0.98035505     0.97700
N113        N  0.29581930  0.77247734  0.80852137    -0.07500
N114        N  0.26362231  0.73563176  0.79531837    -0.63800
N115        N  0.41842496  0.80307098  0.77931702    -0.06300
N116        N  0.46133910  0.79648636  0.75297828    -0.64500
N117        N  0.41400989  0.76741077  0.81442400    -0.07000
N118        N  0.45328655  0.73524771  0.81231173    -0.64100
N119        N  0.29937822  0.80637615  0.77171324    -0.05900
N120        N  0.26964679  0.79286229  0.73275443    -0.64800
Mn121      Mn  0.35341609  0.77076815  0.87120833     1.10700
C122        C  0.24678177  0.74872822  0.74803687     0.98200
C123        C  0.48271335  0.75460951  0.77453307     0.98300
N124        N  0.42962939  0.95785340  0.80487081    -0.07000
N125        N  0.46498538  0.99175886  0.79090615    -0.62400
N126        N  0.30607084  0.92695946  0.78077714    -0.06300
N127        N  0.26330031  0.93481785  0.75504976    -0.59100
N128        N  0.31168986  0.96295435  0.81506782    -0.07600
N129        N  0.27364863  0.99623188  0.81332434    -0.62000
N130        N  0.42531554  0.92246684  0.76972366    -0.06600
N131        N  0.45760607  0.93180239  0.73124136    -0.59100
Mn132      Mn  0.37266267  0.96307279  0.86883265     1.20200
Mn133      Mn  0.36213631  0.86488356  0.77314176     1.10100
Cl134      Cl  0.36377535  0.86684530  0.86946176    -0.87100
C135        C  0.48295820  0.97464404  0.74526053     0.95200
C136        C  0.24372757  0.97784370  0.77621753     0.95000
C137        C  0.37280986  0.37044728  0.87232096    -0.03600
C138        C  0.37680578  0.87538793  0.36911811    -0.03600
C139        C  0.87830530  0.37582630  0.36585650    -0.03600
N140        N  0.21292562  0.06059377  0.68339287    -0.07300
N141        N  0.23746299  0.05342405  0.72647464    -0.59400
N142        N  0.19123565  0.02638988  0.56115380    -0.06900
N143        N  0.20288638  0.99347427  0.52451607    -0.61500
N144        N  0.22837415  0.06001868  0.56593456    -0.06500
N145        N  0.26617473  0.05037358  0.53250515    -0.59400
N146        N  0.17784209  0.02522961  0.67729454    -0.06200
N147        N  0.17757417  0.99302938  0.71542665    -0.61900
C148        C  0.21446826  0.01143096  0.74583619     0.94900
C149        C  0.24959945  0.00888662  0.50627225     0.94700
N150        N  0.03307863  0.06482624  0.55607621    -0.07500
N151        N  0.99530979  0.05131053  0.52602899    -0.60000
N152        N  0.06048826  0.02077660  0.67071780    -0.05600
N153        N  0.04972609  0.98338211  0.70301280    -0.61200
N154        N  0.02359330  0.05568310  0.67142851    -0.07500
N155        N  0.98670175  0.04246395  0.70442912    -0.60200
N156        N  0.07022005  0.03000971  0.55610100    -0.05200
N157        N  0.05887997  0.99200808  0.52613088    -0.61300
Mn158      Mn  0.12539465  0.02460354  0.61567993     1.18400
C159        C  0.01251754  0.00632331  0.50810754     0.97000
C160        C  0.00393630  0.99752033  0.72446061     0.97700
N161        N  0.22253113  0.17849195  0.56941373    -0.07500
N162        N  0.25427957  0.18277585  0.53041913    -0.63800
N163        N  0.18518043  0.21635996  0.68476733    -0.06300
N164        N  0.19688943  0.25324469  0.71731461    -0.64500
N165        N  0.22120412  0.18047661  0.68583796    -0.07000
N166        N  0.25798740  0.19245740  0.71890235    -0.64100
N167        N  0.18525450  0.21308386  0.56729234    -0.05900
N168        N  0.19036851  0.24129474  0.52629416    -0.64800
Mn169      Mn  0.22345730  0.11974072  0.62668973     1.10700
C170        C  0.23297200  0.22131267  0.50364016     0.98200
C171        C  0.24204022  0.23756274  0.73914360     0.98300
N172        N  0.02721883  0.17372093  0.67671458    -0.07000
N173        N  0.99491500  0.17500637  0.71541567    -0.62400
N174        N  0.06268952  0.22138783  0.56359245    -0.06300
N175        N  0.05193841  0.25981365  0.53201880    -0.59100
N176        N  0.02698667  0.18595131  0.55994173    -0.07600
N177        N  0.99147256  0.19981623  0.52575155    -0.62000
N178        N  0.06334234  0.20844717  0.68120606    -0.06600
N179        N  0.05673592  0.23393781  0.72368915    -0.59100
Mn180      Mn  0.02612740  0.12042775  0.61555246     1.20200
Mn181      Mn  0.12402094  0.21701098  0.62426277     1.10100
Cl182      Cl  0.12478282  0.12083662  0.62005006    -0.87100
C183        C  0.01421949  0.21224658  0.74449946     0.95200
C184        C  0.00774103  0.24579625  0.50780585     0.95000
N185        N  0.06033525  0.69416152  0.19794675    -0.07300
N186        N  0.05360562  0.73817559  0.22053657    -0.59400
N187        N  0.02739100  0.57075029  0.18004753    -0.06900
N188        N  0.99414905  0.53433721  0.19259978    -0.61500
N189        N  0.06208127  0.57642286  0.21619513    -0.06500
N190        N  0.05240756  0.54394294  0.25423494    -0.59400
N191        N  0.02385360  0.68715924  0.16404422    -0.06200
N192        N  0.99107165  0.72561782  0.16314807    -0.61900
C193        C  0.01035675  0.75718092  0.19837249     0.94900
C194        C  0.01001692  0.51717110  0.23893959     0.94700
N195        N  0.06784874  0.56220156  0.02509801    -0.07500
N196        N  0.05486896  0.53259911  0.98732466    -0.60000
N197        N  0.01913631  0.67731198  0.04768092    -0.05600
N198        N  0.98188031  0.71000994  0.03448099    -0.61200
N199        N  0.05513523  0.67561388  0.01216980    -0.07500
N200        N  0.04323748  0.70653994  0.97398405    -0.60200
N201        N  0.03150489  0.56279276  0.06061884    -0.05200
N202        N  0.99291719  0.53345335  0.04803542    -0.61300
Mn203      Mn  0.02413922  0.62399547  0.11374233     1.18400
C204        C  0.00853111  0.51546651  0.00272099     0.97000
C205        C  0.99746884  0.72803975  0.98822125     0.97700
N206        N  0.18564047  0.58550660  0.21134483    -0.07500
N207        N  0.19621955  0.55336983  0.24813197    -0.63800
N208        N  0.21878167  0.69923914  0.17191622    -0.06300
N209        N  0.25756365  0.72950771  0.18509810    -0.64500
N210        N  0.18267414  0.69951254  0.20767736    -0.07000
N211        N  0.19674443  0.72968989  0.24572720    -0.64100
N212        N  0.22220990  0.58464138  0.17589790    -0.05900
N213        N  0.25879113  0.55167180  0.18778984    -0.64800
Mn214      Mn  0.12201026  0.63900238  0.21002181     1.10700
C215        C  0.24159984  0.53308404  0.23268159     0.98200
C216        C  0.24340576  0.74892206  0.23117391     0.98300
N217        N  0.17143170  0.68605390  0.01758563    -0.07000
N218        N  0.16542903  0.72626063  0.98853553    -0.62400
N219        N  0.22660577  0.57601199  0.05284431    -0.06300
N220        N  0.26600784  0.54506890  0.04027291    -0.59100
N221        N  0.18886546  0.57079772  0.01973309    -0.07600
N222        N  0.20145933  0.53658534  0.98474803    -0.62000
N223        N  0.20674684  0.69349037  0.05255437    -0.06600
N224        N  0.22541378  0.73960735  0.04812079    -0.59100
Mn225      Mn  0.12156056  0.62287159  0.01772085     1.20200
Mn226      Mn  0.22083258  0.63816489  0.11262074     1.10100
Cl227      Cl  0.12243693  0.63022527  0.11384063    -0.87100
C228        C  0.19942389  0.75926848  0.00779864     0.95200
C229        C  0.24951289  0.52008154  0.99773791     0.95000
N230        N  0.68147397  0.05546807  0.01767372    -0.07300
N231        N  0.71121403  0.04253250  0.97825115    -0.59400
N232        N  0.56719339  0.02377271  0.06539778    -0.06900
N233        N  0.53603603  0.98620272  0.05479638    -0.61500
N234        N  0.56512992  0.05928998  0.02994665    -0.06500
N235        N  0.53243922  0.04730074  0.99433821    -0.59400
N236        N  0.68325245  0.01980505  0.05275487    -0.06200
N237        N  0.71412627  0.98193742  0.03800297    -0.61900
C238        C  0.73166914  0.99644470  0.99140095     0.94900
C239        C  0.51516587  0.00219103  0.01078073     0.94700
N240        N  0.57875786  0.05398047  0.22077430    -0.07500
N241        N  0.54773206  0.04192412  0.25942993    -0.60000
N242        N  0.69293741  0.02780970  0.16800979    -0.05600
N243        N  0.73308137  0.99708038  0.16825985    -0.61200
N244        N  0.69685169  0.06342631  0.20282118    -0.07500
N245        N  0.74031329  0.05745744  0.22789464    -0.60200
N246        N  0.57596954  0.01929521  0.18482491    -0.05200
N247        N  0.54314418  0.98289941  0.19834856    -0.61300
Mn248      Mn  0.62931629  0.02136273  0.11835515     1.18400
C249        C  0.52542369  0.99767202  0.24484813     0.97000
C250        C  0.76210747  0.01584804  0.20579615     0.97700
N251        N  0.56248245  0.17764919  0.02271373    -0.07500
N252        N  0.52997902  0.18917574  0.98529635    -0.63800
N253        N  0.68174187  0.20892812  0.05955349    -0.06300
N254        N  0.72418177  0.23567303  0.05410291    -0.64500
N255        N  0.68022735  0.17304268  0.02472861    -0.07000
N256        N  0.72084416  0.17449335  0.99475437    -0.64100
N257        N  0.56157452  0.21330416  0.05784855    -0.05900
N258        N  0.52779742  0.24965057  0.04492303    -0.64800
Mn259      Mn  0.62207958  0.11683765  0.02262514     1.10700
C260        C  0.50808477  0.23412033  0.99952209     0.98200
C261        C  0.74796088  0.21325683  0.01381978     0.98300
N262        N  0.68889371  0.18415147  0.21380073    -0.07000
N263        N  0.72172860  0.19872558  0.24975259    -0.62400
N264        N  0.56486308  0.20638614  0.17912591    -0.06300
N265        N  0.52233810  0.23326026  0.18648892    -0.59100
N266        N  0.57063936  0.17234424  0.21569868    -0.07600
N267        N  0.53267151  0.17573801  0.24914653    -0.62000
N268        N  0.68368528  0.22028602  0.17933477    -0.06600
N269        N  0.71297117  0.26002093  0.19147719    -0.59100
Mn270      Mn  0.63444823  0.11831732  0.21531335     1.20200
Mn271      Mn  0.62258387  0.21454002  0.11877930     1.10100
Cl272      Cl  0.62678501  0.11795688  0.11890122    -0.87100
C273        C  0.73717420  0.24622186  0.23555775     0.95200
C274        C  0.50263237  0.21321872  0.22981703     0.95000
C275        C  0.61211421  0.61445166  0.11258062    -0.03600
C276        C  0.11177527  0.61967504  0.61431468    -0.03600
N277        N  0.27413815  0.31506370  0.42423357    -0.07300
N278        N  0.24187111  0.27714676  0.43100546    -0.59400
N279        N  0.30666134  0.43080805  0.46378588    -0.06900
N280        N  0.29452392  0.46400348  0.50025953    -0.61500
N281        N  0.27098508  0.43190866  0.42806385    -0.06500
N282        N  0.23440714  0.46607845  0.43944216    -0.59400
N283        N  0.31135465  0.31357371  0.45836946    -0.06200
N284        N  0.30601291  0.27406655  0.48845907    -0.61900
C285        C  0.26308732  0.25165205  0.47044021     0.94900
C286        C  0.24956328  0.48650174  0.48447025     0.94700
N287        N  0.46669485  0.42589631  0.42247447    -0.07500
N288        N  0.50001796  0.46307311  0.42788465    -0.60000
N289        N  0.43336478  0.31188096  0.46561238    -0.05600
N290        N  0.44614044  0.28032154  0.50338320    -0.61200
N291        N  0.46847645  0.30918799  0.42911776    -0.07500
N292        N  0.50540549  0.27573503  0.44122322    -0.60200
N293        N  0.42941485  0.42917974  0.45679649    -0.05200
N294        N  0.43598925  0.46913106  0.48591741    -0.61300
Mn295      Mn  0.37007466  0.37148999  0.46300111     1.18400
C296        C  0.47962349  0.49003800  0.46684972     0.97000
C297        C  0.49106520  0.25735268  0.48761664     0.97700
N298        N  0.27647280  0.43158250  0.30813229    -0.07500
N299        N  0.24547972  0.47079926  0.30092302    -0.63800
N300        N  0.30596932  0.31436168  0.26953123    -0.06300
N301        N  0.29482960  0.28042749  0.23402121    -0.64500
N302        N  0.26940106  0.31550902  0.30467301    -0.07000
N303        N  0.23248029  0.28250021  0.29339732    -0.64100
N304        N  0.31305330  0.43008873  0.27298367    -0.05900
N305        N  0.30815677  0.46808920  0.24083604    -0.64800
Mn306      Mn  0.27087388  0.37366111  0.36640399     1.10700
C307        C  0.26624412  0.49277314  0.25919015     0.98200
C308        C  0.24899599  0.26027751  0.24934876     0.98300
N309        N  0.46094070  0.30634490  0.30948682    -0.07000
N310        N  0.49003448  0.26548432  0.30345899    -0.62400
N311        N  0.43392779  0.42638322  0.26963536    -0.06300
N312        N  0.44474443  0.46245866  0.23574242    -0.59100
N313        N  0.47042399  0.42388224  0.30438648    -0.07600
N314        N  0.50688299  0.45795983  0.29468494    -0.62000
N315        N  0.42586122  0.30920085  0.27341088    -0.06600
N316        N  0.43055138  0.27087454  0.24163625    -0.59100
Mn317      Mn  0.46840320  0.36589253  0.36616393     1.20200
Mn318      Mn  0.36990901  0.37016802  0.26974284     1.10100
Cl319      Cl  0.36975863  0.37035285  0.36646057    -0.87100
C320        C  0.47009618  0.24365666  0.26143687     0.95200
C321        C  0.49046576  0.48208151  0.25178865     0.95000
N322        N  0.52845260  0.67636570  0.68307939    -0.07300
N323        N  0.49863403  0.68160715  0.72335376    -0.59400
N324        N  0.55409240  0.71916076  0.56457212    -0.14100
N325        N  0.54112638  0.75577871  0.53184281    -0.61500
N326        N  0.51776400  0.68424033  0.56624128    -0.06500
N327        N  0.47947444  0.69642070  0.53465322    -0.59400
N328        N  0.56315288  0.71275450  0.68113047    -0.06200
N329        N  0.55712600  0.74423789  0.71957905    -0.61900
C330        C  0.51733220  0.72367963  0.74582117     0.94900
C331        C  0.49470026  0.74089057  0.51289049     0.94700
N332        N  0.71287226  0.67665500  0.55909777    -0.07500
N333        N  0.74295945  0.68156932  0.51899303    -0.60000
N334        N  0.68360780  0.71665202  0.67556633    -0.05600
N335        N  0.69500476  0.75290484  0.70856114    -0.61200
N336        N  0.71970853  0.68086018  0.67568569    -0.07500
N337        N  0.75624144  0.69209171  0.70934544    -0.60200
N338        N  0.67652537  0.71226504  0.55980757    -0.05200
N339        N  0.68095556  0.74253913  0.52023410    -0.61300
Mn340      Mn  0.61937171  0.71695521  0.61999887     1.18400
C341        C  0.72217028  0.72245134  0.49554271     0.97000
C342        C  0.74009936  0.73709734  0.72997573     0.97700
N343        N  0.52323879  0.56515801  0.56279632    -0.07500
N344        N  0.49036666  0.56024369  0.52509220    -0.63800
N345        N  0.55763267  0.52210704  0.67798119    -0.06300
N346        N  0.54733597  0.48574101  0.71180238    -0.64500
N347        N  0.52133375  0.55756437  0.67939570    -0.07000
N348        N  0.48535087  0.54571676  0.71370801    -0.64100
N349        N  0.56026544  0.53038745  0.56011661    -0.05900
N350        N  0.55395110  0.50147375  0.51995070    -0.64800
Mn351      Mn  0.52097983  0.62086584  0.62302855     1.10700
C352        C  0.51077007  0.52111454  0.49836481     0.98200
C353        C  0.50216671  0.50098665  0.73429823     0.98300
N354        N  0.71532235  0.56137123  0.67554780    -0.07000
N355        N  0.74806937  0.55352624  0.71294600    -0.62400
N356        N  0.68289086  0.52152962  0.55987763    -0.06300
N357        N  0.69495578  0.48409893  0.52779304    -0.59100
N358        N  0.71913864  0.55656398  0.55896560    -0.07600
N359        N  0.75616263  0.54369770  0.52576011    -0.62000
N360        N  0.67803126  0.52749879  0.67654525    -0.06600
N361        N  0.68364023  0.49652375  0.71529982    -0.59100
Mn362      Mn  0.71865966  0.61895648  0.61724380     1.20200
Mn363      Mn  0.61960291  0.52368931  0.61839903     1.10100
Cl364      Cl  0.61970401  0.62008962  0.61939115    -0.87100
C365        C  0.72691771  0.51371444  0.73768357     0.95200
C366        C  0.74073402  0.49825773  0.50624392     0.95000
C367        C  0.61525295  0.11038554  0.61685117    -0.03600
C368        C  0.11921370  0.12359350  0.12037719    -0.03600
C369        C  0.16396605  0.22069486  0.22629322    -0.27500
C370        C  0.21789496  0.22278656  0.21901619    -0.15500
C371        C  0.24048480  0.18873083  0.18327822     0.35100
C372        C  0.20909373  0.15551017  0.15508103    -0.26900
C373        C  0.15395776  0.15628986  0.15814714    -0.16200
C374        C  0.13218723  0.18816136  0.19764986     0.36200
N375        N  0.07799153  0.18884888  0.21060834    -0.90400
H376        H  0.14575942  0.24514380  0.25460310     0.17300
H377        H  0.22940094  0.12897040  0.13065286     0.17300
N378        N  0.29550683  0.18601907  0.17503226    -0.89400
H379        H  0.06808480  0.15433522  0.22780948     0.34700
H380        H  0.05530659  0.19540112  0.17842824     0.39800
H381        H  0.31373070  0.17928697  0.20997464     0.39400
H382        H  0.30804976  0.22077319  0.15999836     0.34300
C383        C  0.51904319  0.22138418  0.57286039    -0.27500
C384        C  0.52349102  0.22091602  0.51952908    -0.15500
C385        C  0.56072511  0.18739001  0.49800060     0.35100
C386        C  0.59077226  0.15444820  0.52934562    -0.26900
C387        C  0.58437024  0.15165831  0.58325273    -0.16200
C388        C  0.54956549  0.18946624  0.60453576     0.36200
N389        N  0.54349419  0.19730937  0.65822628    -0.90400
H390        H  0.49233166  0.24819601  0.59066756     0.17300
H391        H  0.61951640  0.13122577  0.51009749     0.17300
N392        N  0.56782706  0.18573264  0.44381226    -0.89400
H393        H  0.57776773  0.21198622  0.67288967     0.34700
H394        H  0.53359216  0.16334371  0.67635154     0.39800
H395        H  0.56061108  0.14851082  0.43163082     0.39400
H396        H  0.60667683  0.19394885  0.43570384     0.34300
C397        C  0.15380239  0.59353640  0.52536074    -0.27500
C398        C  0.15124551  0.58794558  0.57928472    -0.15500
C399        C  0.18751913  0.55255815  0.60080360     0.35100
C400        C  0.21956289  0.52141231  0.56943643    -0.26900
C401        C  0.21751588  0.52370593  0.51592117    -0.16200
C402        C  0.18470891  0.56148255  0.49405528     0.36200
N403        N  0.18276458  0.56944227  0.44001377    -0.90400
H404        H  0.13210666  0.62327198  0.50625941     0.17300
H405        H  0.24529074  0.49393949  0.58746077     0.17300
N406        N  0.19119806  0.54688694  0.65499052    -0.89400
H407        H  0.16824074  0.53667049  0.42282183     0.34700
H408        H  0.22048312  0.57584994  0.42658987     0.39800
H409        H  0.22938111  0.55477773  0.66561009     0.39400
H410        H  0.18361591  0.50885839  0.66431865     0.34300
C411        C  0.60365476  0.55206842  0.18778932    -0.27500
C412        C  0.57802997  0.58615980  0.15402006    -0.15500
C413        C  0.52358719  0.59328108  0.16277829     0.35100
C414        C  0.49608755  0.55922835  0.19476331    -0.26900
C415        C  0.52151453  0.52057692  0.22238707    -0.16200
C416        C  0.57634104  0.51862908  0.22049146     0.36200
N417        N  0.60428886  0.48081620  0.24947290    -0.90400
H418        H  0.64543006  0.54814882  0.18527052     0.17300
H419        H  0.45435708  0.56371540  0.19869517     0.17300
N420        N  0.49605610  0.63643562  0.14257765    -0.89400
H421        H  0.64433739  0.48480458  0.24435737     0.34700
H422        H  0.59482384  0.44506200  0.23469311     0.39800
H423        H  0.48184390  0.65799914  0.17318883     0.39400
H424        H  0.46406383  0.62323035  0.12221306     0.34300
C425        C  0.79905785  0.25826610  0.30928493    -0.27500
C426        C  0.77298946  0.27969317  0.26728304    -0.15500
C427        C  0.77945963  0.33276777  0.25906786     0.35100
C428        C  0.81208162  0.36170692  0.29172736    -0.26900
C429        C  0.84190864  0.33983716  0.33190663    -0.16200
C430        C  0.83143221  0.28704917  0.34189785     0.36200
N431        N  0.84979011  0.26229741  0.38712947    -0.90400
H432        H  0.79316289  0.21834776  0.31821117     0.17300
H433        H  0.81500928  0.40214135  0.28472450     0.17300
N434        N  0.75203393  0.35786325  0.21837084    -0.89400
H435        H  0.87096644  0.22980506  0.37637298     0.34700
H436        H  0.81761467  0.25029587  0.40836523     0.39800
H437        H  0.76788808  0.34466823  0.18401568     0.39400
H438        H  0.75851925  0.39718224  0.21906008     0.34300
C439        C  0.98160473  0.47926961  0.32428448    -0.27500
C440        C  0.98130755  0.47725341  0.27058961    -0.15500
C441        C  0.95274645  0.43695893  0.24825487     0.35100
C442        C  0.92325785  0.40315056  0.27884236    -0.26900
C443        C  0.91789690  0.40882754  0.33248776    -0.16200
C444        C  0.95113541  0.44585188  0.35494636     0.36200
N445        N  0.95278074  0.45123938  0.40925483    -0.90400
H446        H  0.00433580  0.50831663  0.34292125     0.17300
H447        H  0.90442509  0.37221777  0.25940912     0.17300
N448        N  0.95372193  0.42821386  0.19434268    -0.89400
H449        H  0.99108876  0.44507261  0.42092329     0.34700
H450        H  0.94254669  0.48877512  0.41856827     0.39800
H451        H  0.99241251  0.42462384  0.18240969     0.39400
H452        H  0.93655235  0.45936529  0.17590250     0.34300
C453        C  0.91463043  0.35083757  0.45735595    -0.27500
C454        C  0.91473973  0.34350072  0.40356987    -0.15500
C455        C  0.95099581  0.30624196  0.38516337     0.35100
C456        C  0.98022396  0.27502202  0.41934776    -0.26900
C457        C  0.97647728  0.28037164  0.47270339    -0.16200
C458        C  0.94371400  0.31997185  0.49148092     0.36200
N459        N  0.93803937  0.32993859  0.54518495    -0.90400
H460        H  0.89243056  0.38156018  0.47428298     0.17300
H461        H  0.00611656  0.24612280  0.40380917     0.17300
N462        N  0.95722066  0.29868890  0.33139791    -0.89400
H463        H  0.95257559  0.36639297  0.55209933     0.34700
H464        H  0.95979470  0.30460697  0.56734363     0.39800
H465        H  0.94885091  0.26064502  0.32316275     0.39400
H466        H  0.99618312  0.30495571  0.32205071     0.34300
C467        C  0.80458393  0.38614288  0.43249371    -0.27500
C468        C  0.83798415  0.41077701  0.39699671    -0.15500
C469        C  0.83067370  0.46528552  0.39319344     0.35100
C470        C  0.80102769  0.49193374  0.43032166    -0.26900
C471        C  0.77185847  0.46697540  0.46806347    -0.16200
C472        C  0.77252785  0.41289921  0.46742440     0.36200
N473        N  0.74266195  0.38363047  0.50304065    -0.90400
H474        H  0.80531918  0.34494746  0.43505139     0.17300
H475        H  0.79813942  0.53312488  0.42748189     0.17300
N476        N  0.84512152  0.49489253  0.34933687    -0.89400
H477        H  0.70329244  0.39146781  0.49714524     0.34700
H478        H  0.75267278  0.39456423  0.54001191     0.39800
H479        H  0.84904916  0.47341422  0.31628465     0.39400
H480        H  0.87801764  0.51646696  0.35713457     0.34300
C481        C  0.35352576  0.83543814  0.27965694    -0.27500
C482        C  0.34265700  0.84063149  0.33266521    -0.15500
C483        C  0.30117317  0.81011953  0.35167619     0.35100
C484        C  0.26897437  0.78225867  0.31817003    -0.26900
C485        C  0.27818651  0.78039862  0.26521835    -0.16200
C486        C  0.32216202  0.80646280  0.24647588     0.36200
N487        N  0.33550884  0.80390683  0.19343338    -0.90400
H488        H  0.38733674  0.85304919  0.26291274     0.17300
H489        H  0.23694632  0.76089307  0.33421760     0.17300
N490        N  0.29110059  0.80731483  0.40538712    -0.89400
H491        H  0.37309098  0.78874863  0.19029622     0.34700
H492        H  0.33600432  0.84110550  0.17892154     0.39800
H493        H  0.25265487  0.81878009  0.41200714     0.39400
H494        H  0.29470291  0.76915550  0.41663799     0.34300
C495        C  0.47129824  0.90669522  0.34595219    -0.27500
C496        C  0.41685064  0.90843667  0.33719252    -0.15500
C497        C  0.39944714  0.94398654  0.29953107     0.35100
C498        C  0.43523112  0.97203924  0.26982147    -0.26900
C499        C  0.48888420  0.96745913  0.27722359    -0.16200
C500        C  0.50703237  0.93486163  0.31613845     0.36200
N501        N  0.56195112  0.92990739  0.32491565    -0.90400
H502        H  0.48692678  0.88441130  0.37697260     0.17300
H503        H  0.42078826  0.99788485  0.24074062     0.17300
N504        N  0.34504186  0.95142371  0.29070462    -0.89400
H505        H  0.56936721  0.90348750  0.35397959     0.34700
H506        H  0.57527336  0.96511487  0.33786827     0.39800
H507        H  0.33759152  0.94347050  0.25238416     0.39400
H508        H  0.33612568  0.98988194  0.29706412     0.34300
C509        C  0.33546318  0.98112940  0.46807649    -0.27500
C510        C  0.28094993  0.98037972  0.46647538    -0.15500
C511        C  0.25773906  0.95136380  0.42723465     0.35100
C512        C  0.28863565  0.92155614  0.39393446    -0.26900
C513        C  0.34307219  0.91610374  0.39997843    -0.16200
C514        C  0.36634381  0.94998449  0.43568322     0.36200
N515        N  0.42166808  0.95171277  0.44069063    -0.90400
H516        H  0.35455523  0.00453580  0.49622864     0.17300
H517        H  0.26881636  0.90206012  0.36362860     0.17300
N518        N  0.20271451  0.95184719  0.41936532    -0.89400
H519        H  0.43119460  0.94282753  0.47842026     0.34700
H520        H  0.43352823  0.98908135  0.43334613     0.39800
H521        H  0.19017512  0.98969882  0.41535028     0.39400
H522        H  0.18450091  0.93556973  0.45105588     0.34300
C523        C  0.39429863  0.83653224  0.46040837    -0.27500
C524        C  0.40511042  0.83701229  0.40716508    -0.15500
C525        C  0.44143545  0.79946456  0.38968700     0.35100
C526        C  0.47001382  0.76911752  0.42463496    -0.26900
C527        C  0.46182883  0.77244205  0.47748679    -0.16200
C528        C  0.42199285  0.80562143  0.49527030     0.36200
N529        N  0.40795237  0.80895603  0.54837696    -0.90400
H530        H  0.36343628  0.85985769  0.47617375     0.17300
H531        H  0.49900207  0.74257957  0.41013969     0.17300
N532        N  0.45062318  0.79271949  0.33619467    -0.89400
H533        H  0.41599100  0.84600775  0.56056325     0.34700
H534        H  0.43012738  0.78434061  0.57093031     0.39800
H535        H  0.49016226  0.79824984  0.32893836     0.39400
H536        H  0.44194277  0.75496662  0.32700498     0.34300
C537        C  0.34603621  0.33126685  0.78352101    -0.27500
C538        C  0.33826290  0.33449147  0.83725888    -0.15500
C539        C  0.30020362  0.30069723  0.85789151     0.35100
C540        C  0.26905504  0.27015476  0.82571507    -0.26900
C541        C  0.27527326  0.27041706  0.77252020    -0.16200
C542        C  0.31485088  0.30108619  0.75166945     0.36200
N543        N  0.32437191  0.30237624  0.69777906    -0.90400
H544        H  0.37703837  0.35172511  0.76492717     0.17300
H545        H  0.23991841  0.24571353  0.84268605     0.17300
N546        N  0.29268393  0.29702546  0.91185659    -0.89400
H547        H  0.29026182  0.31431847  0.67965323     0.34700
H548        H  0.33335371  0.26539490  0.68557852     0.39800
H549        H  0.29967895  0.25920795  0.92277608     0.39400
H550        H  0.25381600  0.30569536  0.92011469     0.34300
C551        C  0.28529206  0.41414801  0.90161860    -0.27500
C552        C  0.33996785  0.40996634  0.90516574    -0.15500
C553        C  0.36458604  0.44554513  0.93832408     0.35100
C554        C  0.33496659  0.47988432  0.96876854    -0.26900
C555        C  0.28046449  0.48188792  0.96638652    -0.16200
C556        C  0.25592460  0.44868408  0.93164160     0.36200
N557        N  0.20054803  0.44936445  0.92662576    -0.90400
H558        H  0.26420695  0.39143310  0.87459734     0.17300
H559        H  0.35505665  0.50570308  0.99395822     0.17300
N560        N  0.42007479  0.44630654  0.94210695    -0.89400
H561        H  0.18685685  0.41283707  0.93500872     0.34700
H562        H  0.19163244  0.45758485  0.88859445     0.39800
H563        H  0.43266024  0.48277488  0.93192928     0.39400
H564        H  0.43021358  0.43987756  0.98015829     0.34300
C565        C  0.43310070  0.29517471  0.99016672    -0.27500
C566        C  0.47176956  0.26542550  0.96684600    -0.15500
C567        C  0.47494178  0.26621127  0.91291175     0.35100
C568        C  0.44122956  0.29839763  0.88435603    -0.26900
C569        C  0.40525892  0.33250924  0.90765847    -0.16200
C570        C  0.39896257  0.32667292  0.96184153     0.36200
N571        N  0.35627843  0.34946325  0.98892291    -0.90400
H572        H  0.42814756  0.29288180  0.03119568     0.17300
H573        H  0.44472230  0.29862663  0.84315642     0.17300
N574        N  0.51345703  0.23557272  0.88712144    -0.89400
H575        H  0.37117864  0.37173287  0.01837199     0.34700
H576        H  0.33447504  0.32035192  0.00568865     0.39800
H577        H  0.54992760  0.24931635  0.89735928     0.39400
H578        H  0.51062898  0.24015357  0.84757074     0.34300
C579        C  0.46368948  0.40559010  0.83987229    -0.27500
C580        C  0.40851212  0.40586473  0.83764582    -0.15500
C581        C  0.38577653  0.44213418  0.80339090     0.35100
C582        C  0.41687219  0.47301432  0.77154564    -0.26900
C583        C  0.47124401  0.46958838  0.77168307    -0.16200
C584        C  0.49462880  0.43596348  0.80701162     0.36200
N585        N  0.55006819  0.43350553  0.81087520    -0.90400
H586        H  0.48397700  0.38282155  0.86781254     0.17300
H587        H  0.39788527  0.49909504  0.74532315     0.17300
N588        N  0.33046031  0.44711311  0.79973813    -0.89400
H589        H  0.56183580  0.39578354  0.80442225     0.34700
H590        H  0.56020294  0.44306772  0.84819883     0.39800
H591        H  0.31976280  0.44007503  0.76199248     0.39400
H592        H  0.32025595  0.48480735  0.80839830     0.34300
C593        C  0.15172949  0.64480018  0.70311655    -0.27500
C594        C  0.14808961  0.65308401  0.64973856    -0.15500
C595        C  0.18217908  0.69064651  0.62917860     0.35100
C596        C  0.21232553  0.72194988  0.66153193    -0.26900
C597        C  0.21275420  0.71547319  0.71488471    -0.16200
C598        C  0.18272244  0.67522196  0.73541351     0.36200
N599        N  0.18379066  0.66480906  0.78927596    -0.90400
H600        H  0.13131933  0.61346971  0.72054790     0.17300
H601        H  0.23647666  0.75104104  0.64437696     0.17300
N602        N  0.18594662  0.69778031  0.57508621    -0.89400
H603        H  0.16129631  0.63292703  0.79824863     0.34700
H604        H  0.16636853  0.69581681  0.80781041     0.39800
H605        H  0.22452810  0.69111144  0.56418982     0.39400
H606        H  0.17700329  0.73583571  0.56661945     0.34300
C607        C  0.15319379  0.03551087  0.08386125    -0.27500
C608        C  0.15433469  0.08968507  0.08293402    -0.15500
C609        C  0.18789206  0.11162268  0.04533327     0.35100
C610        C  0.22118340  0.08059492  0.01486259    -0.26900
C611        C  0.22234632  0.02710708  0.01959118    -0.16200
C612        C  0.18639898  0.00479239  0.05394437     0.36200
N613        N  0.18116104  0.95059928  0.05859740    -0.90400
H614        H  0.12578405  0.01540081  0.10756016     0.17300
H615        H  0.24727453  0.09886303  0.98802997     0.17300
N616        N  0.18962620  0.16583642  0.03874831    -0.89400
H617        H  0.21537410  0.93520919  0.07361030     0.34700
H618        H  0.17454440  0.93528528  0.02243932     0.39800
H619        H  0.17988368  0.17422090  0.00096342     0.39400
H620        H  0.22778251  0.17774279  0.04466729     0.34300
C621        C  0.50732550  0.65730668  0.01196288    -0.27500
C622        C  0.51177638  0.71059248  0.01127756    -0.15500
C623        C  0.55324000  0.73235384  0.03815099     0.35100
C624        C  0.58689219  0.70130923  0.06746489    -0.26900
C625        C  0.57858662  0.64819682  0.07437810    -0.16200
C626        C  0.53985625  0.62627749  0.04258572     0.36200
N627        N  0.53189468  0.57235774  0.04238238    -0.90400
H628        H  0.47690180  0.63944961  0.99008085     0.17300
H629        H  0.61978117  0.71991772  0.08434518     0.17300
N630        N  0.56222292  0.78612371  0.03499075    -0.89400
H631        H  0.53748127  0.55927712  0.00509380     0.34700
H632        H  0.49335020  0.56524069  0.05273308     0.39800
H633        H  0.59969733  0.79161389  0.02048376     0.39400
H634        H  0.56089849  0.80095156  0.07196093     0.34300
C635        C  0.49370701  0.03697502  0.67419723    -0.27500
C636        C  0.51719142  0.00505339  0.71035441    -0.15500
C637        C  0.57215402  0.00325298  0.71188870     0.35100
C638        C  0.60144473  0.03532880  0.67934577    -0.26900
C639        C  0.57817626  0.07248327  0.64692963    -0.16200
C640        C  0.52284907  0.06923249  0.64188372     0.36200
N641        N  0.49528125  0.09613504  0.60276105    -0.90400
H642        H  0.45175944  0.03677226  0.67067848     0.17300
H643        H  0.64342828  0.03350815  0.68186895     0.17300
N644        N  0.59979290  0.96967846  0.74589242    -0.89400
H645        H  0.46657016  0.11873241  0.62008518     0.34700
H646        H  0.47656085  0.06943911  0.57985264     0.39800
H647        H  0.57446826  0.94754552  0.76769952     0.39400
H648        H  0.62034746  0.99237147  0.77143088     0.34300
C649        C  0.68816310  0.17620022  0.63199464    -0.27500
C650        C  0.65070233  0.14345277  0.65433525    -0.15500
C651        C  0.64598836  0.14719994  0.70903861     0.35100
C652        C  0.67931237  0.17910597  0.73758438    -0.26900
C653        C  0.71772935  0.20938146  0.71479660    -0.16200
C654        C  0.72181723  0.20723335  0.66075841     0.36200
N655        N  0.75904412  0.23698489  0.63325866    -0.90400
H656        H  0.69209995  0.17699419  0.59082787     0.17300
H657        H  0.67402005  0.18091764  0.77858773     0.17300
N658        N  0.60504660  0.12276791  0.73667930    -0.89400
H659        H  0.79630250  0.22590031  0.64469441     0.34700
H660        H  0.75295364  0.27549496  0.64188241     0.39800
H661        H  0.58290362  0.15076152  0.75531519     0.39400
H662        H  0.62181296  0.09945763  0.76465600     0.34300
C663        C  0.02197602  0.17837066  0.01533654    -0.27500
C664        C  0.02674541  0.23127271  0.02080566    -0.15500
C665        C  0.06265307  0.24937447  0.05682889     0.35100
C666        C  0.09167927  0.21454133  0.08651979    -0.26900
C667        C  0.08526729  0.16051175  0.08456646    -0.16200
C668        C  0.05001782  0.14302198  0.04586757     0.36200
N669        N  0.04111033  0.08996569  0.03541475    -0.90400
H670        H  0.99537534  0.16398371  0.98697719     0.17300
H671        H  0.12013775  0.23152360  0.11103100     0.17300
N672        N  0.07094499  0.30299792  0.06487057    -0.89400
H673        H  0.00148268  0.08305790  0.04098728     0.34700
H674        H  0.06018094  0.06600134  0.06062445     0.39800
H675        H  0.04723174  0.32566578  0.04169279     0.39400
H676        H  0.10926357  0.31092096  0.05445414     0.34300
C677        C  0.66637913  0.49122783  0.04038881    -0.27500
C678        C  0.70416960  0.51209878  0.00821388    -0.15500
C679        C  0.70896139  0.56590662  0.00713387     0.35100
C680        C  0.67835857  0.59652605  0.04032592    -0.26900
C681        C  0.64264322  0.57584670  0.07612306    -0.16200
C682        C  0.63486223  0.52168285  0.07272444     0.36200
N683        N  0.59337053  0.49660081  0.09900995    -0.90400
H684        H  0.66068899  0.45029135  0.04013070     0.17300
H685        H  0.68350618  0.63748660  0.03897651     0.17300
N686        N  0.74361681  0.59112802  0.97228777    -0.89400
H687        H  0.60943390  0.46766295  0.12168797     0.34700
H688        H  0.56960584  0.47923327  0.07202882     0.39800
H689        H  0.76291458  0.56518256  0.94854996     0.39400
H690        H  0.77195788  0.60931916  0.99389200     0.34300
C691        C  0.07299033  0.52913107  0.63605960    -0.27500
C692        C  0.07510748  0.58236445  0.64615647    -0.15500
C693        C  0.03961356  0.60069165  0.68415749     0.35100
C694        C  0.00926861  0.56654050  0.71377219    -0.26900
C695        C  0.01049690  0.51368083  0.70531661    -0.16200
C696        C  0.04196621  0.49515612  0.66514991     0.36200
N697        N  0.04326779  0.44136937  0.65459101    -0.90400
H698        H  0.09494210  0.51307176  0.60473908     0.17300
H699        H  0.98434766  0.58167833  0.74365418     0.17300
N700        N  0.03465600  0.65424747  0.69369233    -0.89400
H701        H  0.06930646  0.43324448  0.62494415     0.34700
H702        H  0.00643428  0.43111728  0.64166153     0.39800
H703        H  0.99599357  0.66492785  0.68745385     0.39400
H704        H  0.04295071  0.66081510  0.73212656     0.34300
C705        C  0.62780008  0.68956572  0.17456743    -0.27500
C706        C  0.64973480  0.64855895  0.14615494    -0.15500
C707        C  0.70367978  0.63862120  0.15505494     0.35100
C708        C  0.73381590  0.67267924  0.18443474    -0.26900
C709        C  0.71228943  0.71630570  0.20787474    -0.16200
C710        C  0.65811738  0.72387391  0.20323335     0.36200
N711        N  0.63308663  0.76604576  0.22812312    -0.90400
H712        H  0.58626972  0.69634580  0.17293543     0.17300
H713        H  0.77469592  0.66409636  0.18964687     0.17300
N714        N  0.72804397  0.59236945  0.13804632    -0.89400
H715        H  0.60475083  0.75162080  0.25291091     0.34700
H716        H  0.61431823  0.78799937  0.20035924     0.39800
H717        H  0.74160190  0.57249101  0.17000944     0.39400
H718        H  0.76016871  0.60191666  0.11548749     0.34300
C719        C  0.07855150  0.02535373  0.22718255    -0.27500
C720        C  0.02410964  0.02551502  0.22542342    -0.15500
C721        C  0.99968926  0.05757575  0.18912719     0.35100
C722        C  0.02988826  0.08912795  0.15655217    -0.26900
C723        C  0.08507605  0.08845037  0.15683159    -0.16200
C724        C  0.10878292  0.05619954  0.19435520     0.36200
N725        N  0.16415746  0.05455822  0.19955135    -0.90400
H726        H  0.09814293  0.00159614  0.25510963     0.17300
H727        H  0.00929239  0.11483097  0.13155713     0.17300
N728        N  0.94402873  0.05758529  0.18485412    -0.89400
H729        H  0.17672272  0.01684131  0.19467614     0.34700
H730        H  0.17329944  0.06564228  0.23670312     0.39800
H731        H  0.93311024  0.02121278  0.17293691     0.39400
H732        H  0.93181342  0.08293680  0.15636955     0.34300
C733        C  0.04199870  0.62778156  0.54403353    -0.27500
C734        C  0.07267522  0.65307603  0.58091249    -0.15500
C735        C  0.06329143  0.70682204  0.58554748     0.35100
C736        C  0.03296005  0.73323916  0.54891653    -0.26900
C737        C  0.00744370  0.70806921  0.50914170    -0.16200
C738        C  0.01098679  0.65414135  0.50812387     0.36200
N739        N  0.98557598  0.62490109  0.46970104    -0.90400
H740        H  0.04459253  0.58662268  0.54107582     0.17300
H741        H  0.02851146  0.77424503  0.55238724     0.17300
N742        N  0.08112637  0.73510804  0.62859568    -0.89400
H743        H  0.99817124  0.63763495  0.43384840     0.34700
H744        H  0.94559681  0.63100951  0.47286868     0.39800
H745        H  0.04865805  0.75012264  0.64765095     0.39400
H746        H  0.10284246  0.76595388  0.61525488     0.34300
C747        C  0.65721271  0.00776118  0.51304761    -0.27500
C748        C  0.71165579  0.00730335  0.51497234    -0.15500
C749        C  0.73531631  0.03757650  0.55288159     0.35100
C750        C  0.70454373  0.06843461  0.58606867    -0.26900
C751        C  0.64967836  0.07300922  0.58162324    -0.16200
C752        C  0.62654999  0.03960074  0.54516304     0.36200
N753        N  0.57134518  0.03837715  0.53949566    -0.90400
H754        H  0.63793473  0.98432357  0.48504734     0.17300
H755        H  0.72460168  0.08817642  0.61596934     0.17300
N756        N  0.79090126  0.03664703  0.55812836    -0.89400
H757        H  0.55903161  0.00108422  0.54647430     0.34700
H758        H  0.56237894  0.04754352  0.50169278     0.39800
H759        H  0.80175638  0.99989222  0.56968847     0.39400
H760        H  0.80269438  0.06145433  0.58692567     0.34300
C761        C  0.79860625  0.88213012  0.92591195    -0.27500
C762        C  0.83291638  0.90574274  0.89083155    -0.15500
C763        C  0.82647181  0.95974725  0.88459305     0.35100
C764        C  0.79405380  0.98776817  0.91814954    -0.26900
C765        C  0.76505744  0.96415174  0.95683266    -0.16200
C766        C  0.76645006  0.91014087  0.95933865     0.36200
N767        N  0.73527907  0.88213662  0.99489920    -0.90400
H768        H  0.79912681  0.84094491  0.92959593     0.17300
H769        H  0.79118281  0.02876818  0.91329347     0.17300
N770        N  0.84908775  0.98673776  0.84256841    -0.89400
H771        H  0.69633981  0.89249296  0.98980760     0.34700
H772        H  0.74673764  0.89129609  0.03190890     0.39800
H773        H  0.87114272  0.01665851  0.85704331     0.39400
H774        H  0.81906460  0.00300034  0.82110111     0.34300
C775        C  0.91390397  0.89147565  0.77129174    -0.27500
C776        C  0.91051211  0.90035306  0.82456142    -0.15500
C777        C  0.94589494  0.93676867  0.84442861     0.35100
C778        C  0.97515840  0.96834175  0.81133114    -0.26900
C779        C  0.97264783  0.96319567  0.75813991    -0.16200
C780        C  0.94321201  0.92255658  0.73819248     0.36200
N781        N  0.94131137  0.91175466  0.68444302    -0.90400
H782        H  0.89356036  0.86015569  0.75406699     0.17300
H783        H  0.99998402  0.99723777  0.82748738     0.17300
N784        N  0.95111614  0.94315985  0.89834182    -0.89400
H785        H  0.95834532  0.87583732  0.67875580     0.34700
H786        H  0.96281682  0.93762771  0.66287548     0.39800
H787        H  0.94263714  0.98112664  0.90746916     0.39400
H788        H  0.98990092  0.93599572  0.90783235     0.34300
C789        C  0.77054042  0.82236314  0.75937681    -0.27500
C790        C  0.77104702  0.76926192  0.76571952    -0.15500
C791        C  0.79990758  0.74847991  0.80639775     0.35100
C792        C  0.83000359  0.78086555  0.83753799    -0.26900
C793        C  0.83441374  0.83420258  0.82811122    -0.16200
C794        C  0.80081649  0.85460135  0.78995207     0.36200
N795        N  0.79791760  0.90841082  0.78102605    -0.90400
H796        H  0.74710031  0.83927644  0.72945835     0.17300
H797        H  0.84889267  0.76359929  0.86996885     0.17300
N798        N  0.79753431  0.69468854  0.81692063    -0.89400
H799        H  0.75941344  0.92022084  0.78664494     0.34700
H800        H  0.80770887  0.91541612  0.74289638     0.39800
H801        H  0.75929480  0.68636367  0.82756350     0.39400
H802        H  0.82085379  0.68515465  0.84809299     0.34300
C803        C  0.93972331  0.79906339  0.87351696    -0.27500
C804        C  0.90781168  0.83698985  0.89649178    -0.15500
C805        C  0.91248836  0.84210613  0.95073712     0.35100
C806        C  0.94036287  0.80542527  0.97940710    -0.26900
C807        C  0.96764014  0.76532441  0.95611462    -0.16200
C808        C  0.96794040  0.76269373  0.90231347     0.36200
N809        N  0.99540716  0.72198768  0.87690353    -0.90400
H810        H  0.93986551  0.79574586  0.83233697     0.17300
H811        H  0.94225312  0.80958688  0.02048581     0.17300
N812        N  0.89278376  0.88583948  0.97739655    -0.89400
H813        H  0.99194612  0.72543120  0.83731641     0.34700
H814        H  0.97733613  0.68781544  0.88702130     0.39800
H815        H  0.92400801  0.90421419  0.99461420     0.39400
H816        H  0.86811812  0.87318046  0.00654235     0.34300
loop_ 
_geom_bond_atom_site_label_1 
_geom_bond_atom_site_label_2 
_geom_bond_distance 
_geom_bond_site_symmetry_2 
_ccdc_geom_bond_type 
C1          C762   1.579       .  S
C1          C776   1.583       .  S
C1          C793   1.591       .  S
C1          C804   1.586       .  S
N2            N3   1.332       .  A
N2            N8   1.315       .  A
N2          Mn31   2.266       .  S
N3           C10   1.365       .  A
N4            N6   1.311       .  A
N4            N5   1.306       .  A
N4          Mn20   2.091       .  S
N5           C11   1.334       .  A
N6            N7   1.309       .  A
N6          Mn31   2.173       .  S
N7           C11   1.353       .  A
N8            N9   1.324       .  A
N8          Mn20   2.209       .  S
N9           C10   1.354       .  A
C10         C748   1.518   1_565  S
C11         C250   1.401   1_565  S
N12          N18   1.311       .  A
N12          N13   1.328   1_655  A
N12         Mn42   2.228       .  S
N13          C21   1.360   1_455  A
N14          N15   1.304       .  A
N14          N16   1.314       .  A
N14         Mn20   2.118       .  S
N15          C22   1.336       .  A
N16          N17   1.309       .  A
N16         Mn42   2.140       .  S
N17          C22   1.342       .  A
N18          N19   1.327   1_565  A
N18         Mn20   2.226       .  S
N19          C21   1.358   1_545  A
Mn20        Cl44   2.523       .  S
C21         C720   1.510   1_665  S
C22         C159   1.399   1_665  S
N23          N24   1.329       .  A
N23          N29   1.317       .  A
N23         Mn31   2.245       .  S
N24          C32   1.361       .  A
N25          N27   1.318       .  A
N25          N26   1.310       .  A
N25         Mn43   2.162       .  S
N26          C33   1.344       .  A
N27          N28   1.309       .  A
N27         Mn31   2.158       .  S
N28          C33   1.343       .  A
N29          N30   1.327       .  A
N29         Mn43   2.225       .  S
N30          C32   1.357       .  A
Mn31        Cl44   2.545       .  S
C32         C709   1.518       .  S
C33         C341   1.412       .  S
N34          N35   1.325       .  A
N34          N40   1.316       .  A
N34         Mn42   2.218       .  S
N35          C45   1.356       .  A
N36          N37   1.309       .  A
N36          N38   1.312       .  A
N36         Mn43   2.161       .  S
N37          C46   1.349       .  A
N38          N39   1.309       .  A
N38         Mn42   2.125       .  S
N39          C46   1.341       .  A
N40          N41   1.330       .  A
N40         Mn43   2.250       .  S
N41          C45   1.361       .  A
Mn42        Cl44   2.545       .  S
Mn43        Cl44   2.531       .  S
C45         C737   1.512   1_655  S
C46         C193   1.408   1_655  S
N47          N48   1.305       .  A
N47          N53   1.315       .  A
N47         Mn76   2.127       .  S
N48          C55   1.339       .  A
N49          N51   1.314       .  A
N49          N50   1.327   1_556  A
N49         Mn65   2.223       .  S
N50          C56   1.356   1_554  A
N51          N52   1.328   1_655  A
N51         Mn76   2.231       .  S
N52          C56   1.358   1_455  A
N53          N54   1.306       .  A
N53         Mn65   2.131       .  S
N54          C55   1.339       .  A
C55         C204   1.396   1_656  S
C56         C664   1.502   1_656  S
N57          N63   1.313       .  A
N57          N58   1.306       .  A
N57         Mn87   2.158       .  S
N58          C66   1.348       .  A
N59          N60   1.327       .  A
N59          N61   1.315       .  A
N59         Mn65   2.222       .  S
N60          C67   1.356       .  A
N61          N62   1.329       .  A
N61         Mn87   2.245       .  S
N62          C67   1.359       .  A
N63          N64   1.308       .  A
N63         Mn65   2.121       .  S
N64          C66   1.339       .  A
Mn65        Cl89   2.533       .  S
C66         C261   1.401   1_556  S
C67         C678   1.504   1_556  S
N68          N69   1.309       .  A
N68          N74   1.313       .  A
N68         Mn76   2.127       .  S
N69          C77   1.341       .  A
N70          N72   1.314       .  A
N70          N71   1.330       .  A
N70         Mn88   2.245       .  S
N71          C78   1.360       .  A
N72          N73   1.328       .  A
N72         Mn76   2.227       .  S
N73          C78   1.357       .  A
N74          N75   1.309       .  A
N74         Mn88   2.168       .  S
N75          C77   1.349       .  A
Mn76        Cl89   2.538       .  S
C77         C183   1.408   1_655  S
C78         C695   1.509   1_655  S
N79          N80   1.309       .  A
N79          N85   1.315       .  A
N79         Mn87   2.141       .  S
N80          C90   1.342       .  A
N81          N82   1.328       .  A
N81          N83   1.315       .  A
N81         Mn88   2.234       .  S
N82          C91   1.358       .  A
N83          N84   1.331       .  A
N83         Mn87   2.244       .  S
N84          C91   1.363       .  A
N85          N86   1.310       .  A
N85         Mn88   2.165       .  S
N86          C90   1.347       .  A
Mn87        Cl89   2.542       .  S
Mn88        Cl89   2.530       .  S
C90         C365   1.407       .  S
C91         C653   1.525       .  S
N92          N93   1.326       .  A
N92          N98   1.313       .  A
N92        Mn121   2.224       .  S
N93         C100   1.357       .  A
N94          N96   1.311       .  A
N94          N95   1.307       .  A
N94        Mn110   2.110       .  S
N95         C101   1.340       .  A
N96          N97   1.307       .  A
N96        Mn121   2.163       .  S
N97         C101   1.352       .  A
N98          N99   1.326       .  A
N98        Mn110   2.215       .  S
N99         C100   1.357       .  A
C100        C622   1.502   1_556  S
C101        C228   1.404   1_556  S
N102        N108   1.311       .  A
N102        N103   1.330   1_565  A
N102       Mn132   2.232       .  S
N103        C111   1.362   1_545  A
N104        N105   1.306       .  A
N104        N106   1.314       .  A
N104       Mn110   2.115       .  S
N105        C112   1.338       .  A
N106        N107   1.302       .  A
N106       Mn132   2.126       .  S
N107        C112   1.339       .  A
N108        N109   1.323   1_556  A
N108       Mn110   2.213       .  S
N109        C111   1.356   1_554  A
Mn110      Cl134   2.531       .  S
C111        C611   1.513   1_566  S
C112        C239   1.389   1_566  S
N113        N114   1.326       .  A
N113        N119   1.313       .  A
N113       Mn121   2.219       .  S
N114        C122   1.358       .  A
N115        N117   1.315       .  A
N115        N116   1.310       .  A
N115       Mn133   2.171       .  S
N116        C123   1.348       .  A
N117        N118   1.312       .  A
N117       Mn121   2.152       .  S
N118        C123   1.345       .  A
N119        N120   1.330       .  A
N119       Mn133   2.238       .  S
N120        C122   1.361       .  A
Mn121      Cl134   2.535       .  S
C122        C597   1.519       .  S
C123        C330   1.415       .  S
N124        N125   1.327       .  A
N124        N130   1.315       .  A
N124       Mn132   2.225       .  S
N125        C135   1.357       .  A
N126        N127   1.309       .  A
N126        N128   1.314       .  A
N126       Mn133   2.174       .  S
N127        C136   1.351       .  A
N128        N129   1.307       .  A
N128       Mn132   2.115       .  S
N129        C136   1.337       .  A
N130        N131   1.327       .  A
N130       Mn133   2.230       .  S
N131        C135   1.356       .  A
Mn132      Cl134   2.535       .  S
Mn133      Cl134   2.526       .  S
C135        C636   1.500   1_565  S
C136        C148   1.403   1_565  S
C137        C538   1.597       .  S
C137        C552   1.584       .  S
C137        C569   1.592       .  S
C137        C580   1.592       .  S
C138        C482   1.595       .  S
C138        C496   1.586       .  S
C138        C513   1.590       .  S
C138        C524   1.590       .  S
C139        C429   1.609       .  S
C139        C443   1.598       .  S
C139        C454   1.602       .  S
C139        C468   1.600       .  S
N140        N141   1.309       .  A
N140        N146   1.310       .  A
N140       Mn169   2.163       .  S
N141        C148   1.351       .  A
N142        N144   1.313       .  A
N142        N143   1.324   1_545  A
N142       Mn158   2.212       .  S
N143        C149   1.356   1_565  A
N144        N145   1.329       .  A
N144       Mn169   2.238       .  S
N145        C149   1.361       .  A
N146        N147   1.307   1_545  A
N146       Mn158   2.111       .  S
N147        C148   1.337   1_565  A
C149        C510   1.511   1_545  S
N150        N156   1.316       .  A
N150        N151   1.306   1_455  A
N150       Mn180   2.143       .  S
N151        C159   1.341   1_655  A
N152        N153   1.324   1_545  A
N152        N154   1.313       .  A
N152       Mn158   2.204       .  S
N153        C160   1.352       .  A
N154        N155   1.329   1_455  A
N154       Mn180   2.240       .  S
N155        C160   1.360   1_645  A
N156        N157   1.306   1_545  A
N156       Mn158   2.120       .  S
N157        C159   1.336   1_565  A
Mn158      Cl182   2.525       .  S
C160        C779   1.496   1_455  S
N161        N162   1.310       .  A
N161        N167   1.316       .  A
N161       Mn169   2.148       .  S
N162        C170   1.343       .  A
N163        N165   1.315       .  A
N163        N164   1.329       .  A
N163       Mn181   2.241       .  S
N164        C171   1.358       .  A
N165        N166   1.327       .  A
N165       Mn169   2.225       .  S
N166        C171   1.357       .  A
N167        N168   1.310       .  A
N167       Mn181   2.167       .  S
N168        C170   1.347       .  A
Mn169      Cl182   2.547       .  S
C170        C285   1.411       .  S
C171        C541   1.505       .  S
N172        N173   1.309   1_455  A
N172        N178   1.313       .  A
N172       Mn180   2.130       .  S
N173        C183   1.341   1_655  A
N174        N175   1.330       .  A
N174        N176   1.316       .  A
N174       Mn181   2.249       .  S
N175        C184   1.360       .  A
N176        N177   1.331   1_455  A
N176       Mn180   2.250       .  S
N177        C184   1.361   1_655  A
N178        N179   1.310       .  A
N178       Mn181   2.167       .  S
N179        C183   1.350       .  A
Mn180      Cl182   2.543       .  S
Mn181      Cl182   2.524       .  S
C184        C457   1.519   1_455  S
N185        N186   1.308       .  A
N185        N191   1.311       .  A
N185       Mn214   2.162       .  S
N186        C193   1.349       .  A
N187        N189   1.315       .  A
N187        N188   1.327   1_455  A
N187       Mn203   2.228       .  S
N188        C194   1.358   1_655  A
N189        N190   1.333       .  A
N189       Mn214   2.266       .  S
N190        C194   1.365       .  A
N191        N192   1.309   1_455  A
N191       Mn203   2.119       .  S
N192        C193   1.342   1_655  A
C194        C440   1.527   1_455  S
N195        N201   1.316       .  A
N195        N196   1.306   1_554  A
N195       Mn225   2.124       .  S
N196        C204   1.338   1_556  A
N197        N198   1.327   1_455  A
N197        N199   1.310       .  A
N197       Mn203   2.226       .  S
N198        C205   1.360   1_554  A
N199        N200   1.322   1_554  A
N199       Mn225   2.195       .  S
N200        C205   1.353   1_455  A
N201        N202   1.306   1_455  A
N201       Mn203   2.134       .  S
N202        C204   1.338   1_655  A
Mn203      Cl227   2.537       .  S
C205        C807   1.498       .  S
N206        N207   1.307       .  A
N206        N212   1.319       .  A
N206       Mn214   2.147       .  S
N207        C215   1.340       .  A
N208        N210   1.317       .  A
N208        N209   1.328       .  A
N208       Mn226   2.234       .  S
N209        C216   1.359       .  A
N210        N211   1.329       .  A
N210       Mn214   2.236       .  S
N211        C216   1.359       .  A
N212        N213   1.311       .  A
N212       Mn226   2.170       .  S
N213        C215   1.347       .  A
Mn214      Cl227   2.532       .  S
C215        C307   1.411       .  S
C216        C485   1.518       .  S
N217        N218   1.307   1_554  A
N217        N223   1.311       .  A
N217       Mn225   2.104       .  S
N218        C228   1.338   1_556  A
N219        N220   1.334       .  A
N219        N221   1.315       .  A
N219       Mn226   2.267       .  S
N220        C229   1.366   1_554  A
N221        N222   1.322   1_554  A
N221       Mn225   2.197       .  S
N222        C229   1.352       .  A
N223        N224   1.309       .  A
N223       Mn226   2.168       .  S
N224        C228   1.353       .  A
Mn225      Cl227   2.528       .  S
Mn226      Cl227   2.543       .  S
C229        C555   1.515       .  S
N230        N231   1.326   1_554  A
N230        N236   1.310       .  A
N230       Mn259   2.213       .  S
N231        C238   1.358   1_545  A
N232        N234   1.315       .  A
N232        N233   1.307   1_545  A
N232       Mn248   2.124       .  S
N233        C239   1.340   1_565  A
N234        N235   1.301   1_554  A
N234       Mn259   2.120       .  S
N235        C239   1.336   1_556  A
N236        N237   1.323   1_545  A
N236       Mn248   2.205       .  S
N237        C238   1.355   1_554  A
C238        C765   1.503       .  S
N240        N246   1.314       .  A
N240        N241   1.326       .  A
N240       Mn270   2.227       .  S
N241        C249   1.356   1_545  A
N242        N243   1.305   1_545  A
N242        N244   1.312       .  A
N242       Mn248   2.106       .  S
N243        C250   1.336   1_565  A
N244        N245   1.309       .  A
N244       Mn270   2.171       .  S
N245        C250   1.352       .  A
N246        N247   1.326   1_545  A
N246       Mn248   2.214       .  S
N247        C249   1.355       .  A
Mn248      Cl272   2.532       .  S
C249        C499   1.494       .  S
N251        N252   1.325   1_554  A
N251        N257   1.314       .  A
N251       Mn259   2.203       .  S
N252        C260   1.354       .  A
N253        N255   1.314       .  A
N253        N254   1.310       .  A
N253       Mn271   2.173       .  S
N254        C261   1.351       .  A
N255        N256   1.305   1_554  A
N255       Mn259   2.110       .  S
N256        C261   1.337   1_556  A
N257        N258   1.329       .  A
N257       Mn271   2.247       .  S
N258        C260   1.361   1_554  A
Mn259      Cl272   2.528       .  S
C260        C566   1.508       .  S
N262        N263   1.328       .  A
N262        N268   1.314       .  A
N262       Mn270   2.233       .  S
N263        C273   1.361       .  A
N264        N265   1.310       .  A
N264        N266   1.316       .  A
N264       Mn271   2.176       .  S
N265        C274   1.349       .  A
N266        N267   1.312       .  A
N266       Mn270   2.159       .  S
N267        C274   1.345       .  A
N268        N269   1.331       .  A
N268       Mn271   2.247       .  S
N269        C273   1.362       .  A
Mn270      Cl272   2.536       .  S
Mn271      Cl272   2.533       .  S
C273        C426   1.529       .  S
C274        C320   1.418       .  S
C275        C412   1.580       .  S
C275        C625   1.588       .  S
C275        C681   1.593       .  S
C275        C706   1.594       .  S
C276        C398   1.596       .  S
C276        C594   1.591       .  S
C276        C692   1.596       .  S
C276        C734   1.593       .  S
N277        N278   1.312       .  A
N277        N283   1.315       .  A
N277       Mn306   2.157       .  S
N278        C285   1.345       .  A
N279        N281   1.315       .  A
N279        N280   1.329       .  A
N279       Mn295   2.245       .  S
N280        C286   1.360       .  A
N281        N282   1.327       .  A
N281       Mn306   2.226       .  S
N282        C286   1.358       .  A
N283        N284   1.308       .  A
N283       Mn295   2.156       .  S
N284        C285   1.344       .  A
C286        C401   1.515       .  S
N287        N293   1.314       .  A
N287        N288   1.312       .  A
N287       Mn317   2.160       .  S
N288        C296   1.345       .  A
N289        N290   1.329       .  A
N289        N291   1.314       .  A
N289       Mn295   2.249       .  S
N290        C297   1.362       .  A
N291        N292   1.327       .  A
N291       Mn317   2.218       .  S
N292        C297   1.357       .  A
N293        N294   1.310       .  A
N293       Mn295   2.164       .  S
N294        C296   1.347       .  A
Mn295      Cl319   2.531       .  S
C296        C352   1.418       .  S
C297        C384   1.516       .  S
N298        N299   1.310       .  A
N298        N304   1.314       .  A
N298       Mn306   2.156       .  S
N299        C307   1.345       .  A
N300        N302   1.314       .  A
N300        N301   1.324       .  A
N300       Mn318   2.212       .  S
N301        C308   1.355       .  A
N302        N303   1.326       .  A
N302       Mn306   2.227       .  S
N303        C308   1.359       .  A
N304        N305   1.309       .  A
N304       Mn318   2.139       .  S
N305        C307   1.341       .  A
Mn306      Cl319   2.546       .  S
C308        C370   1.505       .  S
N309        N310   1.311       .  A
N309        N315   1.313       .  A
N309       Mn317   2.168       .  S
N310        C320   1.349       .  A
N311        N312   1.326       .  A
N311        N313   1.313       .  A
N311       Mn318   2.220       .  S
N312        C321   1.358       .  A
N313        N314   1.324       .  A
N313       Mn317   2.219       .  S
N314        C321   1.356       .  A
N315        N316   1.311       .  A
N315       Mn318   2.144       .  S
N316        C320   1.344       .  A
Mn317      Cl319   2.541       .  S
Mn318      Cl319   2.535       .  S
C321        C415   1.501       .  S
N322        N323   1.309       .  A
N322        N328   1.313       .  A
N322       Mn351   2.157       .  S
N323        C330   1.346       .  A
N324        N326   1.315       .  A
N324        N325   1.327       .  A
N324       Mn340   2.228       .  S
N325        C331   1.358       .  A
N326        N327   1.327       .  A
N326       Mn351   2.229       .  S
N327        C331   1.356       .  A
N328        N329   1.312       .  A
N328       Mn340   2.157       .  S
N329        C330   1.346       .  A
C331        C527   1.501       .  S
N332        N338   1.316       .  A
N332        N333   1.309       .  A
N332       Mn362   2.149       .  S
N333        C341   1.343       .  A
N334        N335   1.323       .  A
N334        N336   1.315       .  A
N334       Mn340   2.210       .  S
N335        C342   1.353       .  A
N336        N337   1.328       .  A
N336       Mn362   2.235       .  S
N337        C342   1.360       .  A
N338        N339   1.310       .  A
N338       Mn340   2.154       .  S
N339        C341   1.344       .  A
Mn340      Cl364   2.539       .  S
C342        C790   1.499       .  S
N343        N344   1.312       .  A
N343        N349   1.315       .  A
N343       Mn351   2.154       .  S
N344        C352   1.345       .  A
N345        N347   1.313       .  A
N345        N346   1.328       .  A
N345       Mn363   2.227       .  S
N346        C353   1.358       .  A
N347        N348   1.326       .  A
N347       Mn351   2.219       .  S
N348        C353   1.358       .  A
N349        N350   1.311       .  A
N349       Mn363   2.172       .  S
N350        C352   1.348       .  A
Mn351      Cl364   2.542       .  S
C353        C583   1.507       .  S
N354        N355   1.311       .  A
N354        N360   1.313       .  A
N354       Mn362   2.147       .  S
N355        C365   1.345       .  A
N356        N357   1.328       .  A
N356        N358   1.315       .  A
N356       Mn363   2.232       .  S
N357        C366   1.358       .  A
N358        N359   1.329       .  A
N358       Mn362   2.241       .  S
N359        C366   1.361       .  A
N360        N361   1.307       .  A
N360       Mn363   2.150       .  S
N361        C365   1.344       .  A
Mn362      Cl364   2.547       .  S
Mn363      Cl364   2.527       .  S
C366        C471   1.517       .  S
C367        C387   1.602       .  S
C367        C639   1.589       .  S
C367        C650   1.605       .  S
C367        C751   1.606       .  S
C368        C373   1.594       .  S
C368        C608   1.597       .  S
C368        C667   1.603       .  S
C368        C723   1.592       .  S
C369        C370   1.402       .  A
C369        C374   1.408       .  A
C369        H376   1.084       .  S
C370        C371   1.415       .  A
C371        C372   1.407       .  A
C371        N378   1.433       .  S
C372        C373   1.421       .  A
C372        H377   1.077       .  S
C373        C374   1.440       .  A
C374        N375   1.434       .  S
N375        H379   1.043       .  S
N375        H380   1.042       .  S
N378        H381   1.045       .  S
N378        H382   1.045       .  S
C383        C384   1.402       .  A
C383        C388   1.414       .  A
C383        H390   1.084       .  S
C384        C385   1.411       .  A
C385        C386   1.418       .  A
C385        N392   1.432       .  S
C386        C387   1.424       .  A
C386        H391   1.078       .  S
C387        C388   1.442       .  A
C388        N389   1.430       .  S
N389        H393   1.041       .  S
N389        H394   1.041       .  S
N392        H395   1.046       .  S
N392        H396   1.045       .  S
C397        C398   1.422       .  A
C397        C402   1.413       .  A
C397        H404   1.079       .  S
C398        C399   1.428       .  A
C399        C400   1.417       .  A
C399        N406   1.431       .  S
C400        C401   1.405       .  A
C400        H405   1.083       .  S
C401        C402   1.418       .  A
C402        N403   1.433       .  S
N403        H407   1.044       .  S
N403        H408   1.046       .  S
N406        H409   1.046       .  S
N406        H410   1.046       .  S
C411        C412   1.418       .  A
C411        C416   1.413       .  A
C411        H418   1.081       .  S
C412        C413   1.430       .  A
C413        C414   1.415       .  A
C413        N420   1.432       .  S
C414        C415   1.403       .  A
C414        H419   1.084       .  S
C415        C416   1.412       .  A
C416        N417   1.438       .  S
N417        H421   1.045       .  S
N417        H422   1.046       .  S
N420        H423   1.045       .  S
N420        H424   1.046       .  S
C425        C426   1.406       .  A
C425        C430   1.420       .  A
C425        H432   1.083       .  S
C426        C427   1.418       .  A
C427        C428   1.427       .  A
C427        N434   1.437       .  S
C428        C429   1.423       .  A
C428        H433   1.078       .  S
C429        C430   1.435       .  A
C430        N431   1.431       .  S
N431        H435   1.046       .  S
N431        H436   1.046       .  S
N434        H437   1.045       .  S
N434        H438   1.046       .  S
C439        C440   1.409       .  A
C439        C444   1.425       .  A
C439        H446   1.083   1_655  S
C440        C441   1.421       .  A
C441        C442   1.416       .  A
C441        N448   1.432       .  S
C442        C443   1.420       .  A
C442        H447   1.079       .  S
C443        C444   1.430       .  A
C444        N445   1.432       .  S
N445        H449   1.045       .  S
N445        H450   1.046       .  S
N448        H451   1.046       .  S
N448        H452   1.044       .  S
C453        C454   1.424       .  A
C453        C458   1.417       .  A
C453        H460   1.078       .  S
C454        C455   1.428       .  A
C455        C456   1.425       .  A
C455        N462   1.432       .  S
C456        C457   1.409       .  A
C456        H461   1.083   1_655  S
C457        C458   1.419       .  A
C458        N459   1.439       .  S
N459        H463   1.046       .  S
N459        H464   1.043       .  S
N462        H465   1.045       .  S
N462        H466   1.045       .  S
C467        C468   1.421       .  A
C467        C472   1.413       .  A
C467        H474   1.082       .  S
C468        C469   1.443       .  A
C469        C470   1.416       .  A
C469        N476   1.435       .  S
C470        C471   1.403       .  A
C470        H475   1.084       .  S
C471        C472   1.418       .  A
C472        N473   1.432       .  S
N473        H477   1.044       .  S
N473        H478   1.046       .  S
N476        H479   1.039       .  S
N476        H480   1.044       .  S
C481        C482   1.423       .  A
C481        C486   1.417       .  A
C481        H488   1.079       .  S
C482        C483   1.427       .  A
C483        C484   1.419       .  A
C483        N490   1.432       .  S
C484        C485   1.408       .  A
C484        H489   1.083       .  S
C485        C486   1.413       .  A
C486        N487   1.432       .  S
N487        H491   1.046       .  S
N487        H492   1.046       .  S
N490        H493   1.045       .  S
N490        H494   1.046       .  S
C495        C496   1.422       .  A
C495        C500   1.415       .  A
C495        H502   1.078       .  S
C496        C497   1.427       .  A
C497        C498   1.413       .  A
C497        N504   1.432       .  S
C498        C499   1.400       .  A
C498        H503   1.084       .  S
C499        C500   1.408       .  A
C500        N501   1.438       .  S
N501        H505   1.046       .  S
N501        H506   1.045       .  S
N504        H507   1.046       .  S
N504        H508   1.046       .  S
C509        C510   1.404       .  A
C509        C514   1.416       .  A
C509        H516   1.084   1_565  S
C510        C511   1.419       .  A
C511        C512   1.411       .  A
C511        N518   1.432       .  S
C512        C513   1.417       .  A
C512        H517   1.079       .  S
C513        C514   1.429       .  A
C514        N515   1.432       .  S
N515        H519   1.046       .  S
N515        H520   1.046       .  S
N518        H521   1.046       .  S
N518        H522   1.044       .  S
C523        C524   1.422       .  A
C523        C528   1.412       .  A
C523        H530   1.079       .  S
C524        C525   1.426       .  A
C525        C526   1.417       .  A
C525        N532   1.432       .  S
C526        C527   1.403       .  A
C526        H531   1.084       .  S
C527        C528   1.417       .  A
C528        N529   1.439       .  S
N529        H533   1.046       .  S
N529        H534   1.043       .  S
N532        H535   1.046       .  S
N532        H536   1.045       .  S
C537        C538   1.424       .  A
C537        C542   1.410       .  A
C537        H544   1.079       .  S
C538        C539   1.430       .  A
C539        C540   1.420       .  A
C539        N546   1.430       .  S
C540        C541   1.403       .  A
C540        H545   1.084       .  S
C541        C542   1.410       .  A
C542        N543   1.433       .  S
N543        H547   1.046       .  S
N543        H548   1.045       .  S
N546        H549   1.045       .  S
N546        H550   1.046       .  S
C551        C552   1.414       .  A
C551        C556   1.413       .  A
C551        H558   1.078       .  S
C552        C553   1.431       .  A
C553        C554   1.419       .  A
C553        N560   1.433       .  S
C554        C555   1.405       .  A
C554        H559   1.083       .  S
C555        C556   1.416       .  A
C556        N557   1.432       .  S
N557        H561   1.046       .  S
N557        H562   1.046       .  S
N560        H563   1.046       .  S
N560        H564   1.045       .  S
C565        C566   1.398       .  A
C565        C570   1.413       .  A
C565        H572   1.084   1_556  S
C566        C567   1.416       .  A
C567        C568   1.420       .  A
C567        N574   1.438       .  S
C568        C569   1.419       .  A
C568        H573   1.083       .  S
C569        C570   1.437       .  A
C570        N571   1.432       .  S
N571        H575   1.046   1_556  S
N571        H576   1.046   1_556  S
N574        H577   1.045       .  S
N574        H578   1.046       .  S
C579        C580   1.422       .  A
C579        C584   1.418       .  A
C579        H586   1.078       .  S
C580        C581   1.430       .  A
C581        C582   1.412       .  A
C581        N588   1.432       .  S
C582        C583   1.402       .  A
C582        H587   1.084       .  S
C583        C584   1.411       .  A
C584        N585   1.432       .  S
N585        H589   1.046       .  S
N585        H590   1.046       .  S
N588        H591   1.046       .  S
N588        H592   1.045       .  S
C593        C594   1.419       .  A
C593        C598   1.418       .  A
C593        H600   1.078       .  S
C594        C595   1.427       .  A
C595        C596   1.420       .  A
C595        N602   1.433       .  S
C596        C597   1.409       .  A
C596        H601   1.083       .  S
C597        C598   1.417       .  A
C598        N599   1.438       .  S
N599        H603   1.046       .  S
N599        H604   1.045       .  S
N602        H605   1.045       .  S
N602        H606   1.045       .  S
C607        C608   1.421       .  A
C607        C612   1.406       .  A
C607        H614   1.078       .  S
C608        C609   1.430       .  A
C609        C610   1.420       .  A
C609        N616   1.432       .  S
C610        C611   1.407       .  A
C610        H615   1.083   1_554  S
C611        C612   1.417       .  A
C612        N613   1.433   1_545  S
N613        H617   1.044       .  S
N613        H618   1.046       .  S
N616        H619   1.045       .  S
N616        H620   1.046       .  S
C621        C622   1.403       .  A
C621        C626   1.414       .  A
C621        H628   1.084   1_554  S
C622        C623   1.408       .  A
C623        C624   1.412       .  A
C623        N630   1.432       .  S
C624        C625   1.421       .  A
C624        H629   1.078       .  S
C625        C626   1.428       .  A
C626        N627   1.430       .  S
N627        H631   1.046       .  S
N627        H632   1.045       .  S
N630        H633   1.046       .  S
N630        H634   1.045       .  S
C635        C636   1.399       .  A
C635        C640   1.413       .  A
C635        H642   1.084       .  S
C636        C637   1.416       .  A
C637        C638   1.415       .  A
C637        N644   1.438   1_545  S
C638        C639   1.421       .  A
C638        H643   1.084       .  S
C639        C640   1.434       .  A
C640        N641   1.431       .  S
N641        H645   1.046       .  S
N641        H646   1.046       .  S
N644        H647   1.044       .  S
N644        H648   1.046       .  S
C649        C650   1.420       .  A
C649        C654   1.415       .  A
C649        H656   1.084       .  S
C650        C651   1.442       .  A
C651        C652   1.421       .  A
C651        N658   1.431       .  S
C652        C653   1.403       .  A
C652        H657   1.084       .  S
C653        C654   1.421       .  A
C654        N655   1.431       .  S
N655        H659   1.045       .  S
N655        H660   1.045       .  S
N658        H661   1.046       .  S
N658        H662   1.046       .  S
C663        C664   1.401       .  A
C663        C668   1.418       .  A
C663        H670   1.084   1_454  S
C664        C665   1.411       .  A
C665        C666   1.410       .  A
C665        N672   1.440       .  S
C666        C667   1.428       .  A
C666        H671   1.077       .  S
C667        C668   1.443       .  A
C668        N669   1.439       .  S
N669        H673   1.047       .  S
N669        H674   1.034       .  S
N672        H675   1.044       .  S
N672        H676   1.044       .  S
C677        C678   1.398       .  A
C677        C682   1.414       .  A
C677        H684   1.084       .  S
C678        C679   1.417       .  A
C679        C680   1.417       .  A
C679        N686   1.437   1_554  S
C680        C681   1.420       .  A
C680        H685   1.083       .  S
C681        C682   1.439       .  A
C682        N683   1.432       .  S
N683        H687   1.046       .  S
N683        H688   1.045       .  S
N686        H689   1.044       .  S
N686        H690   1.045       .  S
C691        C692   1.423       .  A
C691        C696   1.419       .  A
C691        H698   1.079       .  S
C692        C693   1.429       .  A
C693        C694   1.420       .  A
C693        N700   1.431       .  S
C694        C695   1.404       .  A
C694        H699   1.084   1_455  S
C695        C696   1.410       .  A
C696        N697   1.438       .  S
N697        H701   1.045       .  S
N697        H702   1.046       .  S
N700        H703   1.045   1_455  S
N700        H704   1.046       .  S
C705        C706   1.421       .  A
C705        C710   1.416       .  A
C705        H712   1.083       .  S
C706        C707   1.431       .  A
C707        C708   1.419       .  A
C707        N714   1.431       .  S
C708        C709   1.408       .  A
C708        H713   1.083       .  S
C709        C710   1.413       .  A
C710        N711   1.432       .  S
N711        H715   1.047       .  S
N711        H716   1.045       .  S
N714        H717   1.046       .  S
N714        H718   1.046       .  S
C719        C720   1.402       .  A
C719        C724   1.414       .  A
C719        H726   1.084       .  S
C720        C721   1.414   1_455  A
C721        C722   1.421   1_655  A
C721        N728   1.438       .  S
C722        C723   1.421       .  A
C722        H727   1.077       .  S
C723        C724   1.431       .  A
C724        N725   1.433       .  S
N725        H729   1.045       .  S
N725        H730   1.046       .  S
N728        H731   1.045       .  S
N728        H732   1.046       .  S
C733        C734   1.421       .  A
C733        C738   1.413       .  A
C733        H740   1.083       .  S
C734        C735   1.433       .  A
C735        C736   1.417       .  A
C735        N742   1.432       .  S
C736        C737   1.404       .  A
C736        H741   1.084       .  S
C737        C738   1.416       .  A
C738        N739   1.432   1_455  S
N739        H743   1.047       .  S
N739        H744   1.043       .  S
N742        H745   1.046       .  S
N742        H746   1.045       .  S
C747        C748   1.403       .  A
C747        C752   1.419       .  A
C747        H754   1.084   1_545  S
C748        C749   1.417       .  A
C749        C750   1.423       .  A
C749        N756   1.438       .  S
C750        C751   1.422       .  A
C750        H755   1.077       .  S
C751        C752   1.433       .  A
C752        N753   1.430       .  S
N753        H757   1.046       .  S
N753        H758   1.046       .  S
N756        H759   1.045   1_545  S
N756        H760   1.046       .  S
C761        C762   1.417       .  A
C761        C766   1.406       .  A
C761        H768   1.084       .  S
C762        C763   1.433       .  A
C763        C764   1.412       .  A
C763        N770   1.432       .  S
C764        C765   1.402       .  A
C764        H769   1.084   1_565  S
C765        C766   1.417       .  A
C766        N767   1.432       .  S
N767        H771   1.045       .  S
N767        H772   1.045   1_556  S
N770        H773   1.046   1_565  S
N770        H774   1.046   1_565  S
C775        C776   1.418       .  A
C775        C780   1.409       .  A
C775        H782   1.079       .  S
C776        C777   1.426       .  A
C777        C778   1.416       .  A
C777        N784   1.431       .  S
C778        C779   1.403       .  A
C778        H783   1.084       .  S
C779        C780   1.415       .  A
C780        N781   1.439       .  S
N781        H785   1.046       .  S
N781        H786   1.043       .  S
N784        H787   1.045       .  S
N784        H788   1.045       .  S
C789        C790   1.401       .  A
C789        C794   1.409       .  A
C789        H796   1.084       .  S
C790        C791   1.409       .  A
C791        C792   1.417       .  A
C791        N798   1.438       .  S
C792        C793   1.425       .  A
C792        H797   1.078       .  S
C793        C794   1.426       .  A
C794        N795   1.431       .  S
N795        H799   1.046       .  S
N795        H800   1.046       .  S
N798        H801   1.046       .  S
N798        H802   1.045       .  S
C803        C804   1.418       .  A
C803        C808   1.413       .  A
C803        H810   1.083       .  S
C804        C805   1.435       .  A
C805        C806   1.412       .  A
C805        N812   1.432       .  S
C806        C807   1.399       .  A
C806        H811   1.084   1_556  S
C807        C808   1.412       .  A
C808        N809   1.438       .  S
N809        H813   1.046       .  S
N809        H814   1.046       .  S
N812        H815   1.046       .  S
N812        H816   1.046   1_556  S
