geometry optimzed in LAMMPS
_audit_creation_date              2020-11-30 
_audit_creation_method            'lammps2cif' 
_symmetry_space_group_name_H-M    'P1' 
_symmetry_Int_Tables_number       1 
_symmetry_cell_setting            triclinic 
loop_ 
_symmetry_equiv_pos_as_xyz 
  x,y,z 
_cell_length_a                    35.63453715 
_cell_length_b                    35.82213477718537 
_cell_length_c                    37.35223169795602 
_cell_angle_alpha                 89.53064735585063 
_cell_angle_beta                  89.41854620183656 
_cell_angle_gamma                 119.85284799712413 
loop_ 
_atom_site_label 
_atom_site_type_symbol 
_atom_site_fract_x 
_atom_site_fract_y 
_atom_site_fract_z 
_atom_site_charge 
C1          C  0.28968975  0.26564095  0.98028745     0.79800
N2          N  0.30446152  0.28317175  0.01296754    -0.78500
C3          C  0.34557772  0.31632175  0.01647729     0.82300
N4          N  0.37168474  0.33046579  0.48789175    -0.78400
C5          C  0.35672516  0.31388660  0.45517784     0.82400
N6          N  0.31570255  0.28020245  0.45234289    -0.80100
C7          C  0.74938286  0.76041144  0.47743638     0.79800
N8          N  0.74107212  0.72931571  0.00815898    -0.78500
C9          C  0.70094418  0.69377199  0.00844649     0.82300
N10         N  0.67115544  0.68639657  0.47786015    -0.78400
C11         C  0.69076025  0.70542548  0.44611307     0.82400
N12         N  0.72985158  0.74225457  0.44614796    -0.80100
O13         O  0.50911149  0.45821098  0.27025518    -0.74800
O14         O  0.57559608  0.54093799  0.19585956    -0.74900
O15         O  0.57188418  0.54239656  0.26904115    -0.74900
O16         O  0.51318269  0.45719729  0.19722578    -0.75000
O17         O  0.46309080  0.47695314  0.19354299    -0.74900
O18         O  0.52028059  0.56024305  0.26673114    -0.74900
O19         O  0.52522603  0.56038783  0.19319403    -0.74800
O20         O  0.45791588  0.47642392  0.26561267    -0.74900
Ni21       Ni  0.54432541  0.49907792  0.23327711     1.25400
Ni22       Ni  0.49004105  0.51939827  0.22972319     1.25400
C23         C  0.47218760  0.45332064  0.27974014     0.87400
C24         C  0.56041278  0.56311060  0.18129417     0.87300
C25         C  0.55495283  0.56440405  0.28054360     0.87300
C26         C  0.47878458  0.45345891  0.18316904     0.87500
C27         C  0.74071486  0.99533551  0.00995919     0.79800
N28         N  0.72622442  0.99721347  0.04350175    -0.78500
C29         C  0.68461072  0.98824017  0.04882422     0.82300
N30         N  0.65780989  0.97749470  0.02048141    -0.78400
C31         C  0.66523777  0.96434789  0.48906419     0.82400
N32         N  0.70679239  0.97376478  0.48384038    -0.80100
C33         C  0.28250663  0.02737119  0.02142863     0.79800
N34         N  0.29495054  0.02185590  0.48934731    -0.78500
C35         C  0.33398000  0.02361372  0.48824836     0.82300
N36         N  0.35830192  0.02611728  0.01792544    -0.78400
C37         C  0.33937489  0.02391594  0.05022613     0.82400
N38         N  0.30157686  0.02447304  0.05187779    -0.80100
O39         O  0.45993279  0.99122536  0.30841558    -0.74800
O40         O  0.51843464  0.96670123  0.23366751    -0.74900
O41         O  0.52230074  0.96929144  0.30670922    -0.74900
O42         O  0.45652761  0.98875350  0.23568346    -0.75000
O43         O  0.50663833  0.05827881  0.23344945    -0.74900
O44         O  0.57379819  0.03829824  0.30212086    -0.74900
O45         O  0.56887442  0.03614556  0.22992178    -0.74800
O46         O  0.51166338  0.06025864  0.30655863    -0.74900
Ni47       Ni  0.48751255  0.97652080  0.27128603     1.25400
Ni48       Ni  0.54195411  0.05074409  0.26792032     1.25400
C49         C  0.47670677  0.02951386  0.32045192     0.87400
C50         C  0.55262243  0.99744597  0.21887573     0.87300
C51         C  0.55891185  0.00070606  0.31605712     0.87300
C52         C  0.47127680  0.02663648  0.22223977     0.87500
C53         C  0.97448904  0.25990627  0.50741084     0.79800
N54         N  0.97422675  0.27456993  0.47367878    -0.78500
C55         C  0.96782222  0.30859195  0.46842650     0.82300
N56         N  0.96211289  0.32821579  0.49719252    -0.78400
C57         C  0.96480283  0.31339485  0.02568081     0.82400
N58         N  0.97211253  0.27988221  0.03018981    -0.80100
C59         C  0.00738090  0.75263559  0.49180529     0.79800
N60         N  0.00587808  0.73075661  0.46180578    -0.78500
C61         C  0.00634736  0.69316725  0.46390224     0.82300
N62         N  0.00828101  0.67709486  0.49646719    -0.78400
C63         C  0.01260841  0.69892522  0.03395144     0.82400
N64         N  0.01608150  0.73838657  0.03022599    -0.80100
O65         O  0.02326086  0.47130965  0.28606655    -0.74800
O66         O  0.05312501  0.55832225  0.21263836    -0.74900
O67         O  0.04704657  0.55541632  0.28610792    -0.74900
O68         O  0.02996976  0.47389695  0.21371104    -0.75000
O69         O  0.96101788  0.45722754  0.20896277    -0.74900
O70         O  0.97777861  0.53805656  0.28298743    -0.74900
O71         O  0.98398061  0.54164976  0.21040907    -0.74800
O72         O  0.95408756  0.45417704  0.28213060    -0.74900
Ni73       Ni  0.04087407  0.51550784  0.24965329     1.25400
Ni74       Ni  0.96677221  0.49712919  0.24588763     1.25400
C75         C  0.98371704  0.44927570  0.29679861     0.87400
C76         C  0.02318837  0.56392336  0.19923461     0.87300
C77         C  0.01494780  0.55893267  0.29756325     0.87300
C78         C  0.99286710  0.45211227  0.19940376     0.87500
C79         C  0.05342667  0.05741442  0.99793942     0.01900
C80         C  0.01273909  0.05540401  0.00007747     0.01900
C81         C  0.97443134  0.01505045  0.00486992     0.01900
C82         C  0.97649290  0.97657771  0.00521473     0.01900
C83         C  0.01708920  0.97858167  0.00296809     0.01900
C84         C  0.05546483  0.01890644  0.99925938     0.01900
C85         C  0.01929693  0.93846004  0.00776213    -0.05600
C86         C  0.01353142  0.92004912  0.04209290    -0.05600
C87         C  0.01266189  0.88091301  0.04703399    -0.23700
C88         C  0.01746099  0.85945325  0.01763017     0.18500
C89         C  0.01364029  0.87578799  0.48099074     0.15700
C90         C  0.01530424  0.91569698  0.47739820    -0.18800
C91         C  0.01451397  0.85344832  0.45071436    -0.20600
C92         C  0.01222363  0.81351541  0.45441795    -0.13200
C93         C  0.00909499  0.79493466  0.48850650     0.03500
C94         C  0.01525716  0.81937331  0.02225510    -0.25300
H95         H  0.00908513  0.93582378  0.06503675     0.08600
H96         H  0.00768927  0.86717096  0.07378959     0.12200
H97         H  0.01703030  0.92945240  0.45105035     0.12100
H98         H  0.01687921  0.86681580  0.42410327     0.11900
H99         H  0.01307769  0.79726034  0.43037744     0.12400
H100        H  0.00986204  0.80508137  0.04884048     0.14400
C101        C  0.02041127  0.58557433  0.32928689    -0.05600
C102        C  0.05215252  0.59239894  0.35453060    -0.05600
C103        C  0.05521400  0.61403335  0.38629288    -0.23700
C104        C  0.02712267  0.63002851  0.39311776     0.18500
C105        C  0.99594431  0.62453884  0.36739803     0.15700
C106        C  0.99236365  0.60181803  0.33591781    -0.18800
C107        C  0.96888348  0.64189632  0.37362419    -0.20600
C108        C  0.97278719  0.66460378  0.40491385    -0.13200
C109        C  0.00290913  0.66929522  0.43096859     0.03500
C110        C  0.02981546  0.65162424  0.42509232    -0.25300
H111        H  0.07385318  0.57980610  0.35021508     0.08600
H112        H  0.07946343  0.61813249  0.40555137     0.12200
H113        H  0.96787257  0.59685590  0.31658775     0.12100
H114        H  0.94494395  0.63819915  0.35419509     0.11900
H115        H  0.95173641  0.67798924  0.40907737     0.12400
H116        H  0.05343305  0.65559878  0.44497952     0.14400
C117        C  0.01555927  0.68203746  0.06942662    -0.05600
C118        C  0.99251175  0.68451211  0.09913283    -0.05600
C119        C  0.99134767  0.66388644  0.13151194    -0.23700
C120        C  0.01400630  0.64127617  0.13484961     0.18500
C121        C  0.03950852  0.64100679  0.10573706     0.15700
C122        C  0.03961476  0.66084914  0.07310360    -0.18800
C123        C  0.06341224  0.61975163  0.10942232    -0.20600
C124        C  0.06041028  0.59711711  0.14103058    -0.13200
C125        C  0.03285770  0.59468715  0.16917685     0.03500
C126        C  0.01044458  0.61767864  0.16624497    -0.25300
H127        H  0.97388808  0.70078645  0.09680498     0.08600
H128        H  0.97201595  0.66484983  0.15367831     0.12200
H129        H  0.05794727  0.65934700  0.05035919     0.12100
H130        H  0.08348744  0.61962520  0.08749574     0.11900
H131        H  0.07771256  0.57944455  0.14268109     0.12400
H132        H  0.98931856  0.61615515  0.18799380     0.14400
C133        C  0.01006353  0.09531878  0.99516853    -0.05600
C134        C  0.01399171  0.11530645  0.46543154    -0.05600
C135        C  0.00822508  0.15078605  0.46014610    -0.23700
C136        C  0.99750532  0.16857869  0.48911441     0.18500
C137        C  0.99426610  0.14953259  0.01839891     0.15700
C138        C  0.99847905  0.11288912  0.02380177    -0.18800
C139        C  0.98230150  0.16694445  0.04677942    -0.20600
C140        C  0.97765362  0.20305756  0.04117695    -0.13200
C141        C  0.98464960  0.22256147  0.00700989     0.03500
C142        C  0.99122705  0.20399638  0.48390203    -0.25300
H143        H  0.02150484  0.10153738  0.44264120     0.08600
H144        H  0.01182846  0.16410413  0.43335376     0.12200
H145        H  0.99257865  0.09786475  0.05012459     0.15100
H146        H  0.97633100  0.15251011  0.07333768     0.11900
H147        H  0.96806566  0.21542133  0.06370847     0.12400
H148        H  0.99471918  0.21748146  0.45717901     0.14400
C149        C  0.98749860  0.42082386  0.17157187    -0.05600
C150        C  0.01045228  0.39844465  0.17412661    -0.05600
C151        C  0.00803797  0.37058762  0.14717942    -0.23700
C152        C  0.98351127  0.36545807  0.11664555     0.18500
C153        C  0.96036594  0.38794181  0.11365965     0.15700
C154        C  0.96181494  0.41487745  0.14149927    -0.18800
C155        C  0.93732596  0.38410417  0.08239103    -0.20600
C156        C  0.93809555  0.35913917  0.05408419    -0.13200
C157        C  0.96100026  0.33667746  0.05683121     0.03500
C158        C  0.98297839  0.33935495  0.08856248    -0.25300
H159        H  0.03040351  0.40257791  0.19710670     0.08600
H160        H  0.02615094  0.35382121  0.14985743     0.12200
H161        H  0.94455568  0.43255332  0.13910683     0.12100
H162        H  0.91958357  0.40121564  0.07947517     0.11900
H163        H  0.92095282  0.35760322  0.02985783     0.12400
H164        H  0.00131904  0.32274826  0.09075486     0.14400
C165        C  0.97032248  0.32665915  0.43210040    -0.05600
C166        C  0.99728811  0.32452552  0.40545191    -0.05600
C167        C  0.00441754  0.34689595  0.37287697    -0.23700
C168        C  0.98410103  0.37117496  0.36617076     0.18500
C169        C  0.95488622  0.37131988  0.39201777     0.15700
C170        C  0.94850935  0.34944734  0.42484050    -0.18800
C171        C  0.93337648  0.39430029  0.38502037    -0.20600
C172        C  0.94166059  0.41800126  0.35319954    -0.13200
C173        C  0.97222131  0.41991975  0.32809907     0.03500
C174        C  0.99314124  0.39607509  0.33453869    -0.25300
H175        H  0.01442858  0.30716869  0.41042964     0.08600
H176        H  0.02651844  0.34594346  0.35325936     0.12200
H177        H  0.92719063  0.35085288  0.44504661     0.12100
H178        H  0.91067267  0.39453382  0.40441815     0.11900
H179        H  0.92539331  0.43634763  0.34884227     0.12400
H180        H  0.01654081  0.39719424  0.31515069     0.14400
C181        C  0.09800223  0.02085693  0.99756508    -0.05600
C182        C  0.10900891  0.01345221  0.46488596    -0.05600
C183        C  0.14788592  0.01289529  0.46260939    -0.23700
C184        C  0.17154024  0.01714122  0.49359890     0.18500
C185        C  0.16090177  0.02608900  0.02727035     0.15700
C186        C  0.12060838  0.02426238  0.02901506    -0.18800
C187        C  0.18343266  0.02868718  0.05853751    -0.20600
C188        C  0.22300397  0.02940596  0.05659487    -0.13200
C189        C  0.24103428  0.02782753  0.02331507     0.03500
C190        C  0.21051939  0.01634693  0.49169822    -0.25300
H191        H  0.09087713  0.00983531  0.44081722     0.08600
H192        H  0.15932452  0.00893734  0.43670090     0.12200
H193        H  0.10663342  0.02521882  0.05468327     0.12100
H194        H  0.17024958  0.02973752  0.08454822     0.11900
H195        H  0.23939271  0.03102787  0.08127077     0.12400
H196        H  0.22252328  0.01262461  0.46596018     0.14400
C197        C  0.35403837  0.02342659  0.45351021    -0.05600
C198        C  0.32811261  0.99727032  0.42586333    -0.05600
C199        C  0.34688864  0.99406059  0.39386139    -0.23700
C200        C  0.39188536  0.01778728  0.38863236     0.18500
C201        C  0.41814087  0.04578643  0.41564344     0.15700
C202        C  0.39910891  0.04788924  0.44817964    -0.18800
C203        C  0.46300174  0.07067568  0.40977970    -0.20600
C204        C  0.48179113  0.06689744  0.37792689    -0.13200
C205        C  0.45617182  0.03755942  0.35175491     0.03500
C206        C  0.41111339  0.01341579  0.35712344    -0.25300
H207        H  0.29333546  0.97813309  0.42950556     0.08600
H208        H  0.32625160  0.97271797  0.37334432     0.12200
H209        H  0.41923240  0.06850087  0.46930023     0.12100
H210        H  0.48360998  0.09258431  0.43001907     0.11900
H211        H  0.51660840  0.08561070  0.37438686     0.12400
H212        H  0.39110829  0.99094364  0.33691237     0.14400
C213        C  0.35799609  0.01775718  0.08311788    -0.05600
C214        C  0.34103327  0.97642132  0.09824811    -0.05600
C215        C  0.35893297  0.96996080  0.12921651    -0.23700
C216        C  0.39387667  0.00491986  0.14562507     0.18500
C217        C  0.41065716  0.04677291  0.13073136     0.15700
C218        C  0.39271225  0.05290069  0.09942264    -0.18800
C219        C  0.44539235  0.08171601  0.14719235    -0.20600
C220        C  0.46407527  0.07522912  0.17760232    -0.13200
C221        C  0.44839370  0.03368538  0.19224881     0.03500
C222        C  0.41274764  0.99866033  0.17629377    -0.25300
H223        H  0.31416394  0.94907672  0.08582945     0.08600
H224        H  0.34561222  0.93767535  0.14021338     0.12200
H225        H  0.40564706  0.08483278  0.08771493     0.12100
H226        H  0.45853201  0.11400108  0.13625409     0.11900
H227        H  0.49145040  0.10279347  0.18925635     0.12400
H228        H  0.40034690  0.96641032  0.18713617     0.14400
C229        C  0.78533833  0.00311342  0.00354453    -0.05600
C230        C  0.79545477  0.99740871  0.47044443    -0.05600
C231        C  0.83769013  0.00596039  0.46400843    -0.23700
C232        C  0.86373269  0.00795636  0.49255449     0.18500
C233        C  0.85201271  0.00795820  0.02540362     0.15700
C234        C  0.81125346  0.00405008  0.03208896    -0.18800
C235        C  0.87729149  0.00747053  0.05373337    -0.20600
C236        C  0.91709224  0.00997564  0.04678829    -0.13200
C237        C  0.93233477  0.01309593  0.01149389     0.03500
C238        C  0.90555745  0.01472645  0.48620020    -0.25300
H239        H  0.77605541  0.99575289  0.44774609     0.08600
H240        H  0.84980029  0.01051877  0.43665626     0.12200
H241        H  0.79929808  0.00055529  0.05941734     0.12100
H242        H  0.86612549  0.00477804  0.08122736     0.11900
H243        H  0.93611992  0.00937899  0.06898245     0.12400
H244        H  0.91805151  0.01821420  0.45904210     0.14400
C245        C  0.58439367  0.99417807  0.34365886    -0.05600
C246        C  0.62976359  0.01799012  0.34177271    -0.05600
C247        C  0.65446675  0.01435306  0.36884262    -0.23700
C248        C  0.63414427  0.98770947  0.39875896     0.18500
C249        C  0.58845305  0.96370614  0.40107666     0.15700
C250        C  0.56380961  0.96643700  0.37310525    -0.18800
C251        C  0.56831841  0.93856347  0.43184694    -0.20600
C252        C  0.59324491  0.93808079  0.46036633    -0.13200
C253        C  0.63864280  0.96179035  0.45814411     0.03500
C254        C  0.65885110  0.98589933  0.42692167    -0.25300
H255        H  0.64614756  0.03955973  0.31928145     0.08600
H256        H  0.68942867  0.03314368  0.36678009     0.12200
H257        H  0.52877741  0.94855461  0.37495784     0.12100
H258        H  0.53336606  0.92015429  0.43420990     0.11900
H259        H  0.57705441  0.91935994  0.48425942     0.12400
H260        H  0.69384648  0.00490207  0.42518834     0.14400
C261        C  0.66824114  0.99169523  0.08455942    -0.05600
C262        C  0.69605138  0.02043525  0.11013728    -0.05600
C263        C  0.67929865  0.02690086  0.14214108    -0.23700
C264        C  0.63452215  0.00424767  0.14928091     0.18500
C265        C  0.60660891  0.97392773  0.12432492     0.15700
C266        C  0.62354999  0.96813914  0.09216920    -0.18800
C267        C  0.56202571  0.95032164  0.13160338    -0.20600
C268        C  0.54502560  0.95715007  0.16306606    -0.13200
C269        C  0.57211328  0.98828674  0.18749246     0.03500
C270        C  0.61700423  0.01170874  0.18057158    -0.25300
H271        H  0.73056120  0.03905600  0.10482519     0.08600
H272        H  0.70127178  0.05004055  0.16104444     0.12200
H273        H  0.60177316  0.94553299  0.07281770     0.12100
H274        H  0.54023207  0.92686599  0.11279038     0.11900
H275        H  0.51035172  0.93902655  0.16775269     0.12400
H276        H  0.63811381  0.03562673  0.19942636     0.14400
C277        C  0.80283611  0.79088699  0.97678498    -0.05600
C278        C  0.81240132  0.82134191  0.44470983    -0.05600
C279        C  0.85220081  0.85960919  0.44429928    -0.23700
C280        C  0.87236943  0.87853096  0.47644069     0.18500
C281        C  0.85960262  0.85274770  0.00824123     0.15700
C282        C  0.82078280  0.81286682  0.00882310    -0.18800
C283        C  0.87680218  0.87536927  0.03997938    -0.20600
C284        C  0.91469211  0.91558234  0.03900426    -0.13200
C285        C  0.93600910  0.93386576  0.00634161     0.03500
C286        C  0.91221104  0.91712162  0.47617627    -0.25300
H287        H  0.79772093  0.80763032  0.41937823     0.08600
H288        H  0.86718740  0.87444536  0.41878988     0.12200
H289        H  0.80402158  0.79959845  0.03412762     0.12100
H290        H  0.86080158  0.86208980  0.06552987     0.11900
H291        H  0.92749922  0.93248625  0.06375404     0.12400
H292        H  0.92766679  0.93271482  0.45097558     0.14400
C293        C  0.67194389  0.68413006  0.41180346    -0.05600
C294        C  0.69914133  0.68332760  0.38467396    -0.05600
C295        C  0.68187880  0.66043166  0.35325494    -0.23700
C296        C  0.63707938  0.63875499  0.34791746     0.18500
C297        C  0.60952853  0.64109908  0.37425360     0.15700
C298        C  0.62704107  0.66312092  0.40632405    -0.18800
C299        C  0.56490398  0.62089057  0.36818961    -0.20600
C300        C  0.54762788  0.59764841  0.33687726    -0.13200
C301        C  0.57444233  0.59331095  0.31137401     0.03500
C302        C  0.61931875  0.61430318  0.31696374    -0.25300
H303        H  0.73380887  0.69924233  0.38832736     0.08600
H304        H  0.70356872  0.65938341  0.33326041     0.12200
H305        H  0.60586822  0.66400431  0.42694133     0.12100
H306        H  0.54327765  0.62262813  0.38785258     0.11900
H307        H  0.51295226  0.58158826  0.33324630     0.12400
H308        H  0.64032058  0.61143847  0.29731713     0.14400
C309        C  0.68126158  0.67043568  0.04252044    -0.05600
C310        C  0.70589469  0.66143599  0.06655268    -0.05600
C311        C  0.68735680  0.63855852  0.09850843    -0.23700
C312        C  0.64413510  0.62534020  0.10751360     0.18500
C313        C  0.61943219  0.63524165  0.08387377     0.15700
C314        C  0.63786743  0.65695147  0.05123085    -0.18800
C315        C  0.57673618  0.62337088  0.09334541    -0.20600
C316        C  0.55845445  0.60147932  0.12564887    -0.13200
C317        C  0.58213062  0.59023677  0.14897703     0.03500
C318        C  0.62517292  0.60239304  0.13965882    -0.25300
H319        H  0.73935565  0.67143938  0.06023368     0.08600
H320        H  0.70690757  0.63144134  0.11627063     0.12200
H321        H  0.61879941  0.66413679  0.03292991     0.12100
H322        H  0.55736734  0.63086830  0.07569045     0.11900
H323        H  0.52515595  0.59219276  0.13187154     0.12400
H324        H  0.64385306  0.59399636  0.15734587     0.14400
C325        C  0.09418931  0.09988212  0.99851400    -0.05600
C326        C  0.10589467  0.12364052  0.03016429    -0.05600
C327        C  0.14582048  0.16151281  0.03254136    -0.23700
C328        C  0.17489023  0.17622370  0.00328482     0.18500
C329        C  0.16296714  0.15308820  0.97098277     0.15700
C330        C  0.12253673  0.11519621  0.96871092    -0.18800
C331        C  0.19205726  0.16784489  0.94177788    -0.20600
C332        C  0.23269138  0.20141985  0.44714804    -0.13200
C333        C  0.24543467  0.22769776  0.97683491     0.03500
C334        C  0.21590441  0.21325234  0.00600375    -0.25300
H335        H  0.08442068  0.11219787  0.05336901     0.08600
H336        H  0.15429092  0.17886044  0.05749120     0.12200
H337        H  0.11233481  0.09510127  0.44709426     0.12100
H338        H  0.18352184  0.15054892  0.91680074     0.11900
H339        H  0.25461934  0.21086916  0.42429594     0.12400
H340        H  0.22490060  0.23052670  0.03099337     0.14400
C341        C  0.44519878  0.42077427  0.30729913    -0.05600
C342        C  0.39990252  0.39921541  0.30472535    -0.05600
C343        C  0.37355877  0.37068283  0.33173364    -0.23700
C344        C  0.39200921  0.36410229  0.36238647     0.18500
C345        C  0.43760945  0.38530817  0.36513752     0.15700
C346        C  0.46396491  0.41280519  0.33719573    -0.18800
C347        C  0.45597284  0.38007926  0.39645938    -0.20600
C348        C  0.42950358  0.35564444  0.42528460    -0.13200
C349        C  0.38417007  0.33492727  0.42300878     0.03500
C350        C  0.36561080  0.33828752  0.39099446    -0.25300
H351        H  0.38481564  0.40470753  0.28178641     0.08600
H352        H  0.33873323  0.35481494  0.32914611     0.12200
H353        H  0.49887661  0.42965592  0.33953582     0.12100
H354        H  0.49079201  0.39609986  0.39915493     0.11900
H355        H  0.44452258  0.35348253  0.44969272     0.12400
H356        H  0.33071699  0.32298214  0.38914844     0.14400
C357        C  0.45755902  0.42267084  0.15381106    -0.05600
C358        C  0.48012876  0.40607965  0.13479248    -0.05600
C359        C  0.46191039  0.38042166  0.10485535    -0.23700
C360        C  0.42054959  0.37043422  0.09363783     0.18500
C361        C  0.39668896  0.38525188  0.11350357     0.15700
C362        C  0.41544920  0.41150656  0.14327618    -0.18800
C363        C  0.35483157  0.37428777  0.10275931    -0.20600
C364        C  0.33725222  0.34984258  0.07206835    -0.13200
C365        C  0.36156316  0.33673630  0.05133866     0.03500
C366        C  0.40304713  0.34675098  0.06243466    -0.25300
H367        H  0.51252488  0.41409676  0.14235042     0.08600
H368        H  0.48047799  0.36899314  0.09012163     0.12200
H369        H  0.39748722  0.42370939  0.15791935     0.12100
H370        H  0.33599259  0.38520508  0.11774113     0.11900
H371        H  0.30538338  0.34271394  0.06365594     0.12400
H372        H  0.42184964  0.33656964  0.04647035     0.14400
C373        C  0.28978656  0.26308200  0.48201003     0.79800
N374        N  0.30505095  0.28091519  0.51452258    -0.78500
C375        C  0.34608365  0.31446014  0.51759586     0.82300
N376        N  0.37174356  0.33242692  0.98714252    -0.78400
C377        C  0.35726726  0.31624790  0.95423641     0.82400
N378        N  0.31617717  0.28279301  0.95093136    -0.80100
C379        C  0.76000720  0.75043385  0.97689621     0.79800
N380        N  0.72992823  0.74047350  0.50887531    -0.78500
C381        C  0.69088228  0.70367011  0.50932759     0.82300
N382        N  0.67958028  0.67922549  0.97711305    -0.78400
C383        C  0.69847976  0.69939533  0.94552057     0.82400
N384        N  0.73866696  0.73485258  0.94569619    -0.80100
O385        O  0.50881615  0.46254423  0.76903501    -0.74800
O386        O  0.57196099  0.54829160  0.69576557    -0.74900
O387        O  0.56928461  0.54742217  0.76874548    -0.74900
O388        O  0.51246784  0.46390464  0.69595146    -0.75000
O389        O  0.45997250  0.48054171  0.69390226    -0.74900
O390        O  0.51581242  0.56274944  0.76876066    -0.74900
O391        O  0.51946309  0.56495663  0.69490667    -0.74800
O392        O  0.45558877  0.47811608  0.76610842    -0.74900
Ni393      Ni  0.54253142  0.50501240  0.73251752     1.25400
Ni394      Ni  0.48600684  0.52241756  0.73095445     1.25400
C395        C  0.47139772  0.45585844  0.77913914     0.87400
C396        C  0.55506959  0.56944406  0.68223395     0.87300
C397        C  0.55144374  0.56796814  0.78149444     0.87300
C398        C  0.47742584  0.45899776  0.68239366     0.87500
C399        C  0.73313379  0.98060219  0.51200083     0.79800
N400        N  0.71775896  0.97903117  0.54580005    -0.78500
C401        C  0.67611682  0.96947797  0.55138088     0.82300
N402        N  0.64998781  0.96200599  0.52291744    -0.78400
C403        C  0.67196209  0.97608214  0.98701522     0.82400
N404        N  0.71343826  0.98523270  0.98192737    -0.80100
C405        C  0.27532403  0.01993992  0.52127166     0.79800
N406        N  0.30126067  0.02865354  0.98918600    -0.78500
C407        C  0.33925534  0.02842284  0.98728536     0.82300
N408        N  0.35322227  0.02303559  0.51935815    -0.78400
C409        C  0.33320690  0.01989161  0.55132632     0.82400
N410        N  0.29445248  0.01839495  0.55203173    -0.80100
O411        O  0.45711077  0.98890869  0.80650622    -0.74800
O412        O  0.51165539  0.95689837  0.73392482    -0.74900
O413        O  0.51657263  0.96266485  0.80647611    -0.74900
O414        O  0.45324811  0.98379745  0.73389644    -0.75000
O415        O  0.50674753  0.05193611  0.72927635    -0.74900
O416        O  0.56999128  0.03070261  0.80029636    -0.74900
O417        O  0.56503218  0.02501881  0.72864197    -0.74800
O418        O  0.51075805  0.05698175  0.80246030    -0.74900
Ni419      Ni  0.48268326  0.97065389  0.77046961     1.25400
Ni420      Ni  0.53986483  0.04364315  0.76508443     1.25400
C421        C  0.47521909  0.02788768  0.81704878     0.87400
C422        C  0.54696541  0.98561735  0.71900263     0.87300
C423        C  0.55423137  0.99329132  0.81469114     0.87300
C424        C  0.47062952  0.02104827  0.71866613     0.87500
C425        C  0.97837678  0.26033882  0.00143231     0.79800
N426        N  0.97841268  0.27557268  0.96781254    -0.78500
C427        C  0.97079791  0.30896438  0.96308663     0.82300
N428        N  0.96381457  0.32739107  0.99209204    -0.78400
C429        C  0.96319355  0.31468222  0.53100265     0.82400
N430        N  0.96947079  0.28053391  0.53599031    -0.80100
C431        C  0.01483036  0.75403893  0.99709460     0.79800
N432        N  0.00940585  0.72945790  0.96786328    -0.78500
C433        C  0.00473642  0.68961342  0.97152867     0.82300
N434        N  0.00656690  0.67464173  0.00455270    -0.78400
C435        C  0.00859698  0.69794520  0.52683111     0.82400
N436        N  0.00792401  0.73558429  0.52441815    -0.80100
O437        O  0.01987412  0.48123899  0.78897897    -0.74800
O438        O  0.04404404  0.56246307  0.71190475    -0.74900
O439        O  0.03802706  0.56462562  0.78466617    -0.74900
O440        O  0.02632493  0.47971793  0.71698295    -0.75000
O441        O  0.95648479  0.45930961  0.71113980    -0.74900
O442        O  0.96704914  0.54043177  0.78242522    -0.74900
O443        O  0.97392025  0.54198265  0.70965226    -0.74800
O444        O  0.94936428  0.45810631  0.78383548    -0.74900
Ni445      Ni  0.03462793  0.52293299  0.75081302     1.25400
Ni446      Ni  0.95922918  0.49919355  0.74658599     1.25400
C447        C  0.98046556  0.45612901  0.79892065     0.87400
C448        C  0.01280542  0.56526413  0.69782963     0.87300
C449        C  0.00430948  0.56573130  0.79538779     0.87300
C450        C  0.98959841  0.45590661  0.70261407     0.87500
C451        C  0.05134023  0.05766905  0.50057836     0.01900
C452        C  0.01122740  0.05673599  0.50388873     0.01900
C453        C  0.97253440  0.01684415  0.50832187     0.01900
C454        C  0.97336046  0.97787055  0.50766504     0.01900
C455        C  0.01311415  0.97859585  0.50435746     0.01900
C456        C  0.05200962  0.01838403  0.50051924     0.01900
C457        C  0.01394047  0.93764327  0.50785201    -0.05600
C458        C  0.01130744  0.91972976  0.54195697    -0.05600
C459        C  0.00968219  0.88008714  0.54577061    -0.23700
C460        C  0.01062955  0.85768985  0.51545263     0.18500
C461        C  0.02390109  0.87811626  0.98297107     0.15700
C462        C  0.02493834  0.91764379  0.97825170    -0.18800
C463        C  0.02838877  0.85649781  0.95359770    -0.20600
C464        C  0.02576482  0.81648592  0.95834966    -0.13200
C465        C  0.01891716  0.79727398  0.99262259     0.03500
C466        C  0.00842092  0.81747835  0.51899984    -0.25300
H467        H  0.01003806  0.93635442  0.56562796     0.08600
H468        H  0.00737088  0.86681269  0.57240440     0.12200
H469        H  0.02913840  0.93177018  0.95169871     0.12100
H470        H  0.03346168  0.87030822  0.92685462     0.11900
H471        H  0.02904223  0.80052737  0.93502082     0.12400
H472        H  0.00609991  0.80379944  0.54547520     0.14400
C473        C  0.00822761  0.59565062  0.82390278    -0.05600
C474        C  0.04239318  0.63837863  0.82322249    -0.05600
C475        C  0.04693024  0.66625778  0.85099683    -0.23700
C476        C  0.01825828  0.65134034  0.88052848     0.18500
C477        C  0.98418127  0.60807092  0.88166786     0.15700
C478        C  0.97878485  0.58083695  0.85295069    -0.18800
C479        C  0.95687998  0.59243565  0.91198022    -0.20600
C480        C  0.96377005  0.61914833  0.94116959    -0.13200
C481        C  0.99708229  0.66227988  0.94006787     0.03500
C482        C  0.02381181  0.67849656  0.90940791    -0.25300
H483        H  0.06541813  0.65022337  0.80104420     0.08600
H484        H  0.07341356  0.69917584  0.84976794     0.12200
H485        H  0.95280310  0.54761942  0.85385139     0.12100
H486        H  0.93081450  0.55931899  0.91343101     0.11900
H487        H  0.94287085  0.60621004  0.96463245     0.12400
H488        H  0.04990935  0.71164844  0.90869839     0.14400
C489        C  0.00685028  0.67818909  0.56211723    -0.05600
C490        C  0.97434299  0.67147897  0.58711989    -0.05600
C491        C  0.96961491  0.64893250  0.61916732    -0.23700
C492        C  0.99802784  0.63362380  0.62711055     0.18500
C493        C  0.03212767  0.64199801  0.60282018     0.15700
C494        C  0.03586425  0.66358001  0.57017305    -0.18800
C495        C  0.06142243  0.62799771  0.61138012    -0.20600
C496        C  0.05621259  0.60475288  0.64313011    -0.13200
C497        C  0.02117452  0.59436558  0.66659689     0.03500
C498        C  0.99246713  0.60944829  0.65858256    -0.25300
H499        H  0.95158907  0.68234245  0.58122803     0.08600
H500        H  0.94346851  0.64307715  0.63755244     0.12200
H501        H  0.06116727  0.66893321  0.55099313     0.12100
H502        H  0.08799798  0.63447229  0.59327491     0.11900
H503        H  0.07868088  0.59343226  0.64864602     0.12400
H504        H  0.96555490  0.60198960  0.67664792     0.14400
C505        C  0.00896778  0.09688687  0.49966348    -0.05600
C506        C  0.01820088  0.11514076  0.96121416    -0.05600
C507        C  0.01412086  0.15161436  0.95561837    -0.23700
C508        C  0.00188153  0.16895913  0.98397523     0.18500
C509        C  0.99295296  0.15059229  0.52381988     0.15700
C510        C  0.99866833  0.11477409  0.52888975    -0.18800
C511        C  0.98242755  0.16856764  0.55273742    -0.20600
C512        C  0.97656171  0.20404265  0.54739466    -0.13200
C513        C  0.98083945  0.22220039  0.51297325     0.03500
C514        C  0.99692606  0.20520979  0.97847111    -0.25300
H515        H  0.02721147  0.10193963  0.93890500     0.08600
H516        H  0.02024103  0.16606528  0.92906458     0.12200
H517        H  0.99461057  0.10042807  0.55533247     0.15100
H518        H  0.97873252  0.15519697  0.57952239     0.11900
H519        H  0.96845841  0.21712873  0.57031274     0.12400
H520        H  0.00261154  0.21981288  0.95199151     0.14400
C521        C  0.98574655  0.42465912  0.67539812    -0.05600
C522        C  0.00819085  0.40191015  0.67911514    -0.05600
C523        C  0.00591451  0.37347131  0.65264623    -0.23700
C524        C  0.98217334  0.36833007  0.62152340     0.18500
C525        C  0.95984307  0.39149239  0.61748925     0.15700
C526        C  0.96106934  0.41881904  0.64475082    -0.18800
C527        C  0.93761966  0.38786430  0.58582609    -0.20600
C528        C  0.93817200  0.36222337  0.55810063    -0.13200
C529        C  0.96009507  0.33890442  0.56175937     0.03500
C530        C  0.98146487  0.34152148  0.59390542    -0.25300
H531        H  0.02736537  0.40603951  0.70263090     0.08600
H532        H  0.02341947  0.35620695  0.65617424     0.12200
H533        H  0.94423196  0.43681874  0.64153533     0.12100
H534        H  0.92057755  0.40557377  0.58218592     0.11900
H535        H  0.92153061  0.36078035  0.53359482     0.12400
H536        H  0.99905801  0.32423825  0.59680405     0.14400
C537        C  0.97280278  0.32774732  0.92723323    -0.05600
C538        C  0.00385719  0.33209404  0.90156548    -0.05600
C539        C  0.01083759  0.35696840  0.87041571    -0.23700
C540        C  0.98644078  0.37735331  0.86430079     0.18500
C541        C  0.95317825  0.37063626  0.88892502     0.15700
C542        C  0.94677711  0.34615112  0.92020923    -0.18800
C543        C  0.92778061  0.38973693  0.88251311    -0.20600
C544        C  0.93612021  0.41646884  0.85259040    -0.13200
C545        C  0.97046707  0.42523686  0.82888221     0.03500
C546        C  0.99529241  0.40514502  0.83459846    -0.25300
H547        H  0.02430620  0.31823364  0.90650300     0.08600
H548        H  0.03611460  0.36126420  0.85164579     0.12200
H549        H  0.92238964  0.34252532  0.93972299     0.12100
H550        H  0.90192856  0.38460317  0.90097750     0.11900
H551        H  0.91656371  0.43152551  0.84861481     0.12400
H552        H  0.02144760  0.41127916  0.81608999     0.14400
C553        C  0.09357700  0.01867844  0.49805803    -0.05600
C554        C  0.11590199  0.01961381  0.96431573    -0.05600
C555        C  0.15615812  0.02190562  0.96230613    -0.23700
C556        C  0.17882709  0.02489491  0.99362867     0.18500
C557        C  0.15580541  0.02212419  0.52711882     0.15700
C558        C  0.11699497  0.02305249  0.52909586    -0.18800
C559        C  0.17902009  0.02586479  0.55813295    -0.20600
C560        C  0.21754316  0.02474831  0.55608371    -0.13200
C561        C  0.23383431  0.02012549  0.52293002     0.03500
C562        C  0.21878945  0.02607432  0.99186474    -0.25300
H563        H  0.09865886  0.01702671  0.93991587     0.08600
H564        H  0.16938510  0.02096768  0.93629074     0.12200
H565        H  0.10469221  0.02678879  0.55470032     0.12100
H566        H  0.16737679  0.02963736  0.58401976     0.11900
H567        H  0.23476863  0.02789605  0.58059614     0.12400
H568        H  0.23213240  0.02489520  0.96596238     0.14400
C569        C  0.35767262  0.02687432  0.95214681    -0.05600
C570        C  0.33099320  0.99700361  0.92677851    -0.05600
C571        C  0.34843493  0.99245676  0.89453457    -0.23700
C572        C  0.39274329  0.01846714  0.88677024     0.18500
C573        C  0.41952852  0.05017567  0.91135311     0.15700
C574        C  0.40193916  0.05370749  0.94422107    -0.18800
C575        C  0.46355610  0.07712574  0.90287123    -0.20600
C576        C  0.48124277  0.07148795  0.87109304    -0.13200
C577        C  0.45537313  0.03839112  0.84754785     0.03500
C578        C  0.41087740  0.01254258  0.85526743    -0.25300
H579        H  0.29681783  0.97607694  0.93249647     0.08600
H580        H  0.32737569  0.96822842  0.87588253     0.12200
H581        H  0.42253677  0.07712540  0.96362198     0.12100
H582        H  0.48449919  0.10193795  0.92116193     0.11900
H583        H  0.51559470  0.09172683  0.86575594     0.12400
H584        H  0.39051959  0.98719147  0.83710064     0.14400
C585        C  0.35223825  0.01633728  0.58514202    -0.05600
C586        C  0.32526527  0.98941210  0.61297018    -0.05600
C587        C  0.34284007  0.98501310  0.64491377    -0.23700
C588        C  0.38765417  0.00833107  0.64989228     0.18500
C589        C  0.41491275  0.03656449  0.62241670     0.15700
C590        C  0.39711567  0.03980070  0.58997203    -0.18800
C591        C  0.45953315  0.06107035  0.62785042    -0.20600
C592        C  0.47710229  0.05712227  0.65991776    -0.13200
C593        C  0.45054176  0.02799718  0.68685000     0.03500
C594        C  0.40571006  0.00372279  0.68173963    -0.25300
H595        H  0.29052440  0.97104506  0.60970615     0.08600
H596        H  0.32141117  0.96346092  0.66570047     0.12200
H597        H  0.41799799  0.06105224  0.56875966     0.12100
H598        H  0.48087190  0.08304314  0.60722875     0.11900
H599        H  0.51183094  0.07582708  0.66314326     0.12400
H600        H  0.38502294  0.98131484  0.70244123     0.14400
C601        C  0.77843402  0.99084223  0.50558891    -0.05600
C602        C  0.80156476  0.00761839  0.96825832    -0.05600
C603        C  0.84218121  0.01195322  0.96145248    -0.23700
C604        C  0.86746867  0.01162799  0.98974775     0.18500
C605        C  0.84725694  0.00202242  0.52805391     0.15700
C606        C  0.80485414  0.99365530  0.53433355    -0.18800
C607        C  0.87322533  0.00377815  0.55665361    -0.20600
C608        C  0.91468702  0.01028981  0.55007726    -0.13200
C609        C  0.93077218  0.01526602  0.51491007     0.03500
C610        C  0.90764616  0.01430719  0.98300231    -0.25300
H611        H  0.78263114  0.00736169  0.94567527     0.08600
H612        H  0.85352894  0.01492882  0.93398124     0.12200
H613        H  0.79229373  0.98867796  0.56156942     0.12100
H614        H  0.86118029  0.99930328  0.58401626     0.11900
H615        H  0.93395947  0.01038843  0.57235296     0.12400
H616        H  0.91956821  0.01687642  0.95575088     0.14400
C617        C  0.58069965  0.98634700  0.84095280    -0.05600
C618        C  0.62579441  0.00753301  0.83582348    -0.05600
C619        C  0.65234708  0.00589468  0.86217974    -0.23700
C620        C  0.63428181  0.98404008  0.89457919     0.18500
C621        C  0.58879677  0.96170221  0.89971655     0.15700
C622        C  0.56212531  0.96216182  0.87244476    -0.18800
C623        C  0.57102372  0.94128962  0.93273535    -0.20600
C624        C  0.59810571  0.94486679  0.96090916    -0.13200
C625        C  0.64333161  0.96789223  0.95622765     0.03500
C626        C  0.66113923  0.98615934  0.92256022    -0.25300
H627        H  0.64058877  0.02609578  0.81153775     0.08600
H628        H  0.68708452  0.02314618  0.85779033     0.12200
H629        H  0.52736108  0.94614763  0.87661082     0.12100
H630        H  0.53630593  0.92400803  0.93720536     0.11900
H631        H  0.58368876  0.93025030  0.98660726     0.12400
H632        H  0.69597686  0.00430125  0.91875613     0.14400
C633        C  0.66059435  0.97238440  0.58742914    -0.05600
C634        C  0.68838826  0.00451545  0.61088448    -0.05600
C635        C  0.67212066  0.01243335  0.64236482    -0.23700
C636        C  0.62791581  0.98786687  0.65109881     0.18500
C637        C  0.60030098  0.95360527  0.62878453     0.15700
C638        C  0.61674727  0.94629799  0.59697798    -0.18800
C639        C  0.55636828  0.92822046  0.63798880    -0.20600
C640        C  0.53953381  0.93777923  0.66821324    -0.13200
C641        C  0.56617912  0.97323214  0.68944678     0.03500
C642        C  0.61059843  0.99774470  0.68111232    -0.25300
H643        H  0.72227903  0.02506789  0.60392727     0.08600
H644        H  0.69385192  0.03852254  0.65932504     0.12200
H645        H  0.59522980  0.92119119  0.57911080     0.12100
H646        H  0.53484381  0.90158859  0.62138723     0.11900
H647        H  0.50522814  0.91838139  0.67419361     0.12400
H648        H  0.63148398  0.02479150  0.69764461     0.14400
C649        C  0.79185218  0.80109531  0.47727905    -0.05600
C650        C  0.82528194  0.80890821  0.94429993    -0.05600
C651        C  0.86412002  0.84823708  0.94357471    -0.23700
C652        C  0.88128131  0.87071513  0.97528515     0.18500
C653        C  0.85222229  0.85864470  0.50941765     0.15700
C654        C  0.81216963  0.82015404  0.50963125    -0.18800
C655        C  0.87248780  0.87769401  0.54160753    -0.20600
C656        C  0.91218000  0.91614697  0.54108645    -0.13200
C657        C  0.93209807  0.93610212  0.50843540     0.03500
C658        C  0.91942545  0.91107813  0.97456929    -0.25300
H659        H  0.81261166  0.79276632  0.91923187     0.08600
H660        H  0.88040274  0.86139368  0.91808744     0.12200
H661        H  0.79689346  0.80515536  0.53502532     0.12100
H662        H  0.85756886  0.86295370  0.56715299     0.11900
H663        H  0.92727049  0.93060020  0.56612358     0.12400
H664        H  0.93612643  0.92501946  0.94935223     0.14400
C665        C  0.67662132  0.68169742  0.91098475    -0.05600
C666        C  0.70150918  0.68817657  0.87966868    -0.05600
C667        C  0.68180745  0.66895269  0.84754569    -0.23700
C668        C  0.63667681  0.64344916  0.84583557     0.18500
C669        C  0.61102618  0.63846122  0.87658708     0.15700
C670        C  0.63116205  0.65712740  0.90909829    -0.18800
C671        C  0.56574649  0.61408776  0.87438420    -0.20600
C672        C  0.54622106  0.59346395  0.84251517    -0.13200
C673        C  0.57161077  0.59616668  0.81253007     0.03500
C674        C  0.61686972  0.62185329  0.81420562    -0.25300
H675        H  0.73648796  0.70699356  0.88027691     0.08600
H676        H  0.70196357  0.67350577  0.82415181     0.12200
H677        H  0.61153242  0.65236545  0.93290530     0.12100
H678        H  0.54546625  0.61015790  0.89753849     0.11900
H679        H  0.51133158  0.57350439  0.84188816     0.12400
H680        H  0.63666629  0.62418447  0.79111979     0.14400
C681        C  0.67197628  0.68103202  0.54375225    -0.05600
C682        C  0.69869324  0.67716245  0.56916187    -0.05600
C683        C  0.68137473  0.65483918  0.60147567    -0.23700
C684        C  0.63714127  0.63696607  0.60942905     0.18500
C685        C  0.61018326  0.64183155  0.58448399     0.15700
C686        C  0.62759827  0.66309452  0.55148520    -0.18800
C687        C  0.56628318  0.62531224  0.59300813    -0.20600
C688        C  0.54909012  0.60357566  0.62557572    -0.13200
C689        C  0.57519011  0.59712555  0.65001852     0.03500
C690        C  0.61937642  0.61411620  0.64176647    -0.25300
H691        H  0.73297252  0.69068629  0.56363691     0.08600
H692        H  0.70261152  0.65166395  0.62027932     0.12200
H693        H  0.60690222  0.66635644  0.53212403     0.12100
H694        H  0.54514652  0.62892163  0.57438034     0.11900
H695        H  0.51485890  0.59040082  0.63107566     0.12400
H696        H  0.63983773  0.60941651  0.66040813     0.14400
C697        C  0.09283136  0.09952429  0.50101764    -0.05600
C698        C  0.10486399  0.12381323  0.53239658    -0.05600
C699        C  0.14531684  0.16108938  0.53468492    -0.23700
C700        C  0.17459548  0.17475240  0.50558919     0.18500
C701        C  0.16246320  0.15102823  0.47358600     0.15700
C702        C  0.12157373  0.11364821  0.47143810    -0.18800
C703        C  0.19172127  0.16478958  0.44450811    -0.20600
C704        C  0.23278162  0.20474292  0.94465252    -0.13200
C705        C  0.24548902  0.22505247  0.47899312     0.03500
C706        C  0.21592938  0.21142772  0.50812215    -0.25300
H707        H  0.08321115  0.11323751  0.55549193     0.08600
H708        H  0.15395696  0.17886612  0.55942111     0.12200
H709        H  0.11343307  0.09710856  0.94412968     0.12100
H710        H  0.18305010  0.14702157  0.41976481     0.11900
H711        H  0.25467143  0.21486628  0.92174072     0.12400
H712        H  0.22504988  0.22922712  0.53285469     0.14400
C713        C  0.44550731  0.42221312  0.80616767    -0.05600
C714        C  0.40051884  0.39704925  0.80220426    -0.05600
C715        C  0.37467549  0.36786241  0.82903319    -0.23700
C716        C  0.39324324  0.36429679  0.86084612     0.18500
C717        C  0.43862672  0.38907720  0.86490696     0.15700
C718        C  0.46462722  0.41723270  0.83717933    -0.18800
C719        C  0.45694457  0.38674041  0.89727710    -0.20600
C720        C  0.43046584  0.36169161  0.92584221    -0.13200
C721        C  0.38523960  0.33765458  0.92236950     0.03500
C722        C  0.36696107  0.33805289  0.88930236    -0.25300
H723        H  0.38526883  0.40037633  0.77837895     0.08600
H724        H  0.34001231  0.34922383  0.82542201     0.12200
H725        H  0.49926856  0.43698195  0.84054397     0.12100
H726        H  0.49158991  0.40548273  0.90095607     0.11900
H727        H  0.44536284  0.36181198  0.95101019     0.12400
H728        H  0.33213178  0.32009667  0.88641082     0.14400
C729        C  0.45799701  0.42925628  0.65216264    -0.05600
C730        C  0.48462170  0.42140541  0.62908488    -0.05600
C731        C  0.46767393  0.39624413  0.59874847    -0.23700
C732        C  0.42357009  0.37778837  0.59123434     0.18500
C733        C  0.39602603  0.38386829  0.61503538     0.15700
C734        C  0.41351196  0.41004138  0.64513995    -0.18800
C735        C  0.35163114  0.36418681  0.60793279    -0.20600
C736        C  0.33494937  0.33982208  0.57702226    -0.13200
C737        C  0.36249285  0.33541199  0.55239449     0.03500
C738        C  0.40674472  0.35405670  0.55995173    -0.25300
H739        H  0.51897760  0.43592464  0.63387689     0.08600
H740        H  0.48918192  0.39165429  0.58093064     0.12200
H741        H  0.39263524  0.41556263  0.66297976     0.12100
H742        H  0.32993183  0.36816863  0.62598617     0.11900
H743        H  0.30078761  0.32586922  0.57164099     0.12400
H744        H  0.42817119  0.35047384  0.54123945     0.14400
loop_ 
_geom_bond_atom_site_label_1 
_geom_bond_atom_site_label_2 
_geom_bond_distance 
_geom_bond_site_symmetry_2 
_ccdc_geom_bond_type 
C1            N2   1.363   1_556  A
C1          N378   1.364       .  A
C1          C333   1.491       .  S
N2            C3   1.360       .  A
C3          N376   1.355   1_554  A
C3          C365   1.473       .  S
N4            C5   1.356       .  A
N4          C375   1.357       .  A
C5            N6   1.361       .  A
C5          C349   1.482       .  S
N6          C373   1.364       .  A
C7           N12   1.361       .  A
C7          N380   1.359       .  A
C7          C649   1.489       .  S
N8            C9   1.361       .  A
N8          C379   1.361   1_554  A
C9          N382   1.362   1_554  A
C9          C309   1.480       .  S
N10          C11   1.362       .  A
N10         C381   1.362       .  A
C11          N12   1.361       .  A
C11         C293   1.483       .  S
O13         Ni21   1.931       .  S
O13          C23   1.284       .  A
O14         Ni21   1.927       .  S
O14          C24   1.283       .  A
O15         Ni21   1.924       .  S
O15          C25   1.282       .  A
O16         Ni21   1.924       .  S
O16          C26   1.283       .  A
O17         Ni22   1.915       .  S
O17          C26   1.281       .  A
O18         Ni22   1.925       .  S
O18          C25   1.283       .  A
O19         Ni22   1.921       .  S
O19          C24   1.283       .  A
O20         Ni22   1.913       .  S
O20          C23   1.280       .  A
Ni21        Ni22   2.386       .  S
C23         C341   1.479       .  S
C24         C317   1.488       .  S
C25         C301   1.483       .  S
C26         C357   1.482       .  S
C27          N28   1.365       .  A
C27         N404   1.360   1_554  A
C27         C229   1.488   1_565  S
N28          C29   1.364       .  A
C29          N30   1.357       .  A
C29         C261   1.482       .  S
N30         C403   1.354   1_554  A
C31          N32   1.357       .  A
C31         N402   1.357       .  A
C31         C253   1.476       .  S
N32         C399   1.358       .  A
C33          N38   1.360       .  A
C33         N406   1.361   1_554  A
C33         C189   1.487       .  S
N34          C35   1.361       .  A
N34         C405   1.360       .  A
C35         N408   1.360       .  A
C35         C197   1.477       .  S
N36          C37   1.359       .  A
N36         C407   1.359   1_554  A
C37          N38   1.358       .  A
C37         C213   1.468       .  S
O39         Ni47   1.915       .  S
O39          C49   1.281   1_565  A
O40         Ni47   1.917       .  S
O40          C50   1.282       .  A
O41         Ni47   1.924       .  S
O41          C51   1.282   1_565  A
O42         Ni47   1.919       .  S
O42          C52   1.282   1_565  A
O43         Ni48   1.918       .  S
O43          C52   1.282       .  A
O44         Ni48   1.908       .  S
O44          C51   1.280       .  A
O45         Ni48   1.922       .  S
O45          C50   1.282   1_545  A
O46         Ni48   1.925       .  S
O46          C49   1.283       .  A
Ni47        Ni48   2.388   1_565  S
C49         C205   1.478       .  S
C50         C269   1.477       .  S
C51         C245   1.473   1_545  S
C52         C221   1.484       .  S
C53          N54   1.363       .  A
C53         N430   1.363       .  A
C53         C513   1.490       .  S
N54          C55   1.360       .  A
C55          N56   1.357       .  A
C55         C165   1.481       .  S
N56         C429   1.357       .  A
C57          N58   1.359       .  A
C57         N428   1.355   1_554  A
C57         C157   1.481       .  S
N58         C425   1.363       .  A
C59          N60   1.359       .  A
C59         N436   1.363       .  A
C59          C93   1.490       .  S
N60          C61   1.357       .  A
C61          N62   1.358       .  A
C61         C109   1.475       .  S
N62         C435   1.360       .  A
C63          N64   1.362       .  A
C63         N434   1.358       .  A
C63         C117   1.478       .  S
N64         C431   1.365   1_554  A
O65         Ni73   1.926       .  S
O65          C75   1.283   1_455  A
O66         Ni73   1.934       .  S
O66          C76   1.285       .  A
O67         Ni73   1.916       .  S
O67          C77   1.281       .  A
O68         Ni73   1.908       .  S
O68          C78   1.279   1_455  A
O69         Ni74   1.932       .  S
O69          C78   1.284       .  A
O70         Ni74   1.922       .  S
O70          C77   1.283   1_655  A
O71         Ni74   1.911       .  S
O71          C76   1.279   1_655  A
O72         Ni74   1.915       .  S
O72          C75   1.281       .  A
Ni73        Ni74   2.388   1_455  S
C75         C173   1.477       .  S
C76         C125   1.479       .  S
C77         C101   1.480       .  S
C78         C149   1.478       .  S
C79         C325   1.492       .  S
C79          C80   1.417   1_556  A
C79          C84   1.417       .  A
C80         C133   1.490   1_554  S
C80          C81   1.418   1_455  A
C81         C237   1.485       .  S
C81          C82   1.416   1_545  A
C82         C285   1.491       .  S
C82          C83   1.414   1_655  A
C83          C85   1.487       .  S
C83          C84   1.415   1_564  A
C84         C181   1.483       .  S
C85          C86   1.403       .  A
C85         C462   1.403   1_554  A
C86          C87   1.397       .  A
C86          H95   1.083       .  S
C87          C88   1.403       .  A
C87          H96   1.084       .  S
C88          C94   1.407       .  A
C88         C461   1.415   1_554  A
C89          C91   1.400       .  A
C89          C90   1.406       .  A
C89         C460   1.415       .  A
C90         C457   1.402       .  A
C90          H97   1.084       .  S
C91          C92   1.397       .  A
C91          H98   1.084       .  S
C92          C93   1.409       .  A
C92          H99   1.083       .  S
C93         C466   1.408       .  A
C94         C465   1.408   1_554  A
C94         H100   1.084       .  S
C101        C102   1.407       .  A
C101        C106   1.405   1_455  A
C102        C103   1.398       .  A
C102        H111   1.083       .  S
C103        C104   1.401       .  A
C103        H112   1.083       .  S
C104        C110   1.406       .  A
C104        C105   1.415   1_455  A
C105        C107   1.402       .  A
C105        C106   1.406       .  A
C106        H113   1.084       .  S
C107        C108   1.398       .  A
C107        H114   1.083       .  S
C108        C109   1.404   1_655  A
C108        H115   1.083       .  S
C109        C110   1.404       .  A
C110        H116   1.084       .  S
C117        C118   1.403   1_455  A
C117        C122   1.406       .  A
C118        C119   1.401       .  A
C118        H127   1.083       .  S
C119        C120   1.405   1_655  A
C119        H128   1.083       .  S
C120        C126   1.407       .  A
C120        C121   1.413       .  A
C121        C123   1.404       .  A
C121        C122   1.405       .  A
C122        H129   1.084       .  S
C123        C124   1.399       .  A
C123        H130   1.083       .  S
C124        C125   1.403       .  A
C124        H131   1.083       .  S
C125        C126   1.408       .  A
C126        H132   1.084   1_455  S
C133        C138   1.404   1_456  A
C133        C506   1.403       .  A
C134        C135   1.398       .  A
C134        C505   1.402       .  A
C134        H143   1.083       .  S
C135        C136   1.403   1_455  A
C135        H144   1.084       .  S
C136        C142   1.406       .  A
C136        C509   1.414       .  A
C137        C139   1.400       .  A
C137        C138   1.407       .  A
C137        C508   1.415   1_654  A
C138        H145   1.084       .  S
C139        C140   1.398       .  A
C139        H146   1.084       .  S
C140        C141   1.409       .  A
C140        H147   1.083       .  S
C141        C425   1.491       .  S
C141        C514   1.409   1_554  A
C142        C513   1.409       .  A
C142        H148   1.084       .  S
C149        C150   1.405   1_655  A
C149        C154   1.406       .  A
C150        C151   1.396       .  A
C150        H159   1.083       .  S
C151        C152   1.401   1_455  A
C151        H160   1.083       .  S
C152        C158   1.405       .  A
C152        C153   1.415       .  A
C153        C155   1.402       .  A
C153        C154   1.408       .  A
C154        H161   1.084       .  S
C155        C156   1.399       .  A
C155        H162   1.083       .  S
C156        C157   1.407       .  A
C156        H163   1.083       .  S
C157        C158   1.405       .  A
C158        H164   1.084   1_655  S
C165        C166   1.405       .  A
C165        C170   1.406       .  A
C166        C167   1.401   1_655  A
C166        H175   1.083   1_655  S
C167        C168   1.404   1_455  A
C167        H176   1.083       .  S
C168        C174   1.409       .  A
C168        C169   1.415       .  A
C169        C171   1.401       .  A
C169        C170   1.404       .  A
C170        H177   1.085       .  S
C171        C172   1.396       .  A
C171        H178   1.084       .  S
C172        C173   1.405       .  A
C172        H179   1.083       .  S
C173        C174   1.406       .  A
C174        H180   1.084   1_655  S
C181        C186   1.403   1_556  A
C181        C554   1.402       .  A
C182        C183   1.397       .  A
C182        C553   1.402       .  A
C182        H191   1.083       .  S
C183        C184   1.403       .  A
C183        H192   1.084       .  S
C184        C190   1.404       .  A
C184        C557   1.415       .  A
C185        C187   1.401       .  A
C185        C186   1.405       .  A
C185        C556   1.414   1_554  A
C186        H193   1.085       .  S
C187        C188   1.399       .  A
C187        H194   1.084       .  S
C188        C189   1.408       .  A
C188        H195   1.083       .  S
C189        C562   1.408   1_554  A
C190        C561   1.407       .  A
C190        H196   1.084       .  S
C197        C198   1.404   1_545  A
C197        C202   1.406       .  A
C198        C199   1.397       .  A
C198        H207   1.083       .  S
C199        C200   1.402   1_565  A
C199        H208   1.083       .  S
C200        C206   1.405       .  A
C200        C201   1.414       .  A
C201        C203   1.403       .  A
C201        C202   1.406       .  A
C202        H209   1.084       .  S
C203        C204   1.400       .  A
C203        H210   1.083       .  S
C204        C205   1.405       .  A
C204        H211   1.083       .  S
C205        C206   1.405       .  A
C206        H212   1.084   1_545  S
C213        C214   1.402   1_545  A
C213        C218   1.401       .  A
C214        C215   1.399       .  A
C214        H223   1.084       .  S
C215        C216   1.404   1_565  A
C215        H224   1.083       .  S
C216        C222   1.406   1_545  A
C216        C217   1.415       .  A
C217        C219   1.401       .  A
C217        C218   1.405       .  A
C218        H225   1.084       .  S
C219        C220   1.397       .  A
C219        H226   1.083       .  S
C220        C221   1.407       .  A
C220        H227   1.083       .  S
C221        C222   1.408   1_545  A
C222        H228   1.084       .  S
C229        C234   1.407       .  A
C229        C602   1.409   1_554  A
C230        C231   1.396   1_565  A
C230        C601   1.408       .  A
C230        H239   1.083       .  S
C231        C232   1.399       .  A
C231        H240   1.084       .  S
C232        C238   1.403       .  A
C232        C605   1.415       .  A
C233        C235   1.402       .  A
C233        C234   1.408       .  A
C233        C604   1.416   1_554  A
C234        H241   1.084       .  S
C235        C236   1.397       .  A
C235        H242   1.084       .  S
C236        C237   1.403       .  A
C236        H243   1.083       .  S
C237        C610   1.402   1_554  A
C238        C609   1.400       .  A
C238        H244   1.085       .  S
C245        C246   1.404   1_565  A
C245        C250   1.405       .  A
C246        C247   1.394       .  A
C246        H255   1.083       .  S
C247        C248   1.401   1_545  A
C247        H256   1.083       .  S
C248        C254   1.400       .  A
C248        C249   1.414       .  A
C249        C251   1.404       .  A
C249        C250   1.405       .  A
C250        H257   1.084       .  S
C251        C252   1.399       .  A
C251        H258   1.083       .  S
C252        C253   1.405       .  A
C252        H259   1.083       .  S
C253        C254   1.404       .  A
C254        H260   1.084   1_565  S
C261        C262   1.405   1_565  A
C261        C266   1.406       .  A
C262        C263   1.402       .  A
C262        H271   1.083       .  S
C263        C264   1.405       .  A
C263        H272   1.083       .  S
C264        C270   1.408       .  A
C264        C265   1.413   1_545  A
C265        C267   1.401       .  A
C265        C266   1.401       .  A
C266        H273   1.084       .  S
C267        C268   1.395       .  A
C267        H274   1.084       .  S
C268        C269   1.404       .  A
C268        H275   1.083       .  S
C269        C270   1.408   1_565  A
C270        H276   1.084       .  S
C277        C379   1.492       .  S
C277        C282   1.411   1_556  A
C277        C650   1.408       .  A
C278        C279   1.398       .  A
C278        C649   1.407       .  A
C278        H287   1.083       .  S
C279        C280   1.401       .  A
C279        H288   1.084       .  S
C280        C286   1.404       .  A
C280        C653   1.414       .  A
C281        C283   1.405       .  A
C281        C282   1.409       .  A
C281        C652   1.414   1_554  A
C282        H289   1.084       .  S
C283        C284   1.400       .  A
C283        H290   1.083       .  S
C284        C285   1.403       .  A
C284        H291   1.083       .  S
C285        C658   1.405   1_554  A
C286        C657   1.403       .  A
C286        H292   1.084       .  S
C293        C294   1.405       .  A
C293        C298   1.407       .  A
C294        C295   1.399       .  A
C294        H303   1.083       .  S
C295        C296   1.402       .  A
C295        H304   1.084       .  S
C296        C302   1.409       .  A
C296        C297   1.415       .  A
C297        C299   1.403       .  A
C297        C298   1.410       .  A
C298        H305   1.084       .  S
C299        C300   1.400       .  A
C299        H306   1.084       .  S
C300        C301   1.406       .  A
C300        H307   1.083       .  S
C301        C302   1.407       .  A
C302        H308   1.084       .  S
C309        C310   1.405       .  A
C309        C314   1.405       .  A
C310        C311   1.401       .  A
C310        H319   1.083       .  S
C311        C312   1.404       .  A
C311        H320   1.084       .  S
C312        C318   1.410       .  A
C312        C313   1.415       .  A
C313        C315   1.401       .  A
C313        C314   1.408       .  A
C314        H321   1.084       .  S
C315        C316   1.398       .  A
C315        H322   1.084       .  S
C316        C317   1.407       .  A
C316        H323   1.083       .  S
C317        C318   1.409       .  A
C318        H324   1.084       .  S
C325        C326   1.403   1_556  A
C325        C330   1.406       .  A
C326        C327   1.398       .  A
C326        H335   1.083       .  S
C327        C328   1.403       .  A
C327        H336   1.084       .  S
C328        C334   1.407       .  A
C328        C329   1.414   1_554  A
C329        C331   1.402       .  A
C329        C330   1.408       .  A
C330        H709   1.084       .  S
C331        C704   1.400       .  A
C331        H338   1.084       .  S
C332        C703   1.400       .  A
C332        C705   1.408       .  A
C332        H339   1.083       .  S
C333        C334   1.410   1_556  A
C333        C704   1.408       .  A
C334        H340   1.084       .  S
H337        C702   1.084       .  S
C341        C342   1.405       .  A
C341        C346   1.406       .  A
C342        C343   1.397       .  A
C342        H351   1.083       .  S
C343        C344   1.401       .  A
C343        H352   1.083       .  S
C344        C350   1.407       .  A
C344        C345   1.416       .  A
C345        C347   1.402       .  A
C345        C346   1.408       .  A
C346        H353   1.084       .  S
C347        C348   1.399       .  A
C347        H354   1.083       .  S
C348        C349   1.406       .  A
C348        H355   1.083       .  S
C349        C350   1.405       .  A
C350        H356   1.084       .  S
C357        C358   1.406       .  A
C357        C362   1.408       .  A
C358        C359   1.398       .  A
C358        H367   1.083       .  S
C359        C360   1.402       .  A
C359        H368   1.084       .  S
C360        C366   1.404       .  A
C360        C361   1.414       .  A
C361        C363   1.404       .  A
C361        C362   1.405       .  A
C362        H369   1.084       .  S
C363        C364   1.399       .  A
C363        H370   1.084       .  S
C364        C365   1.403       .  A
C364        H371   1.083       .  S
C365        C366   1.405       .  A
C366        H372   1.085       .  S
C373        N374   1.363       .  A
C373        C705   1.492       .  S
N374        C375   1.361       .  A
C375        C737   1.480       .  S
N376        C377   1.356       .  A
C377        N378   1.362       .  A
C377        C721   1.483       .  S
C379        N384   1.362       .  A
N380        C381   1.359       .  A
C381        C681   1.479       .  S
N382        C383   1.361       .  A
C383        N384   1.361       .  A
C383        C665   1.488       .  S
O385       Ni393   1.932       .  S
O385        C395   1.284       .  A
O386       Ni393   1.925       .  S
O386        C396   1.283       .  A
O387       Ni393   1.915       .  S
O387        C397   1.280       .  A
O388       Ni393   1.917       .  S
O388        C398   1.282       .  A
O389       Ni394   1.924       .  S
O389        C398   1.283       .  A
O390       Ni394   1.935       .  S
O390        C397   1.285       .  A
O391       Ni394   1.919       .  S
O391        C396   1.282       .  A
O392       Ni394   1.908       .  S
O392        C395   1.279       .  A
Ni393      Ni394   2.388       .  S
C395        C713   1.476       .  S
C396        C689   1.483       .  S
C397        C673   1.481       .  S
C398        C729   1.480       .  S
C399        N400   1.361       .  A
C399        C601   1.483       .  S
N400        C401   1.360       .  A
C401        N402   1.359       .  A
C401        C633   1.475       .  S
C403        N404   1.356       .  A
C403        C625   1.477       .  S
C405        N410   1.357       .  A
C405        C561   1.482       .  S
N406        C407   1.359       .  A
C407        C569   1.475       .  S
N408        C409   1.359       .  A
C409        N410   1.355       .  A
C409        C585   1.474       .  S
O411       Ni419   1.911       .  S
O411        C421   1.280   1_565  A
O412       Ni419   1.913       .  S
O412        C422   1.281       .  A
O413       Ni419   1.929       .  S
O413        C423   1.283       .  A
O414       Ni419   1.923       .  S
O414        C424   1.283   1_565  A
O415       Ni420   1.909       .  S
O415        C424   1.280       .  A
O416       Ni420   1.900       .  S
O416        C423   1.278   1_545  A
O417       Ni420   1.920       .  S
O417        C422   1.282   1_545  A
O418       Ni420   1.931       .  S
O418        C421   1.284       .  A
Ni419      Ni420   2.389   1_565  S
C421        C577   1.482       .  S
C422        C641   1.476       .  S
C423        C617   1.470       .  S
C424        C593   1.475       .  S
C425        N426   1.365   1_554  A
N426        C427   1.362       .  A
C427        N428   1.357       .  A
C427        C537   1.479       .  S
C429        N430   1.360       .  A
C429        C529   1.481       .  S
C431        N432   1.362       .  A
C431        C465   1.489       .  S
N432        C433   1.358       .  A
C433        N434   1.356   1_556  A
C433        C481   1.474   1_455  S
C435        N436   1.363       .  A
C435        C489   1.477       .  S
O437       Ni445   1.926       .  S
O437        C447   1.283   1_455  A
O438       Ni445   1.927       .  S
O438        C448   1.284       .  A
O439       Ni445   1.923       .  S
O439        C449   1.282       .  A
O440       Ni445   1.914       .  S
O440        C450   1.280   1_455  A
O441       Ni446   1.923       .  S
O441        C450   1.283       .  A
O442       Ni446   1.919       .  S
O442        C449   1.281   1_655  A
O443       Ni446   1.918       .  S
O443        C448   1.281   1_655  A
O444       Ni446   1.915       .  S
O444        C447   1.281       .  A
Ni445      Ni446   2.388   1_455  S
C447        C545   1.478       .  S
C448        C497   1.483       .  S
C449        C473   1.475       .  S
C450        C521   1.474       .  S
C451        C697   1.493       .  S
C451        C452   1.417       .  A
C451        C456   1.419       .  A
C452        C505   1.487       .  S
C452        C453   1.414   1_455  A
C453        C609   1.479       .  S
C453        C454   1.411   1_545  A
C454        C657   1.487       .  S
C454        C455   1.408   1_655  A
C455        C457   1.487       .  S
C455        C456   1.414   1_565  A
C456        C553   1.478       .  S
C457        C458   1.403       .  A
C458        C459   1.398       .  A
C458        H467   1.083       .  S
C459        C460   1.403       .  A
C459        H468   1.084       .  S
C460        C466   1.408       .  A
C461        C463   1.401       .  A
C461        C462   1.408       .  A
C462        H469   1.084       .  S
C463        C464   1.399       .  A
C463        H470   1.084       .  S
C464        C465   1.409       .  A
C464        H471   1.083       .  S
C466        H472   1.084       .  S
C473        C474   1.403       .  A
C473        C478   1.405   1_455  A
C474        C475   1.400       .  A
C474        H483   1.083       .  S
C475        C476   1.404       .  A
C475        H484   1.083       .  S
C476        C482   1.407       .  A
C476        C477   1.415   1_455  A
C477        C479   1.402       .  A
C477        C478   1.405       .  A
C478        H485   1.085       .  S
C479        C480   1.398       .  A
C479        H486   1.083       .  S
C480        C481   1.404       .  A
C480        H487   1.083       .  S
C481        C482   1.404   1_655  A
C482        H488   1.084       .  S
C489        C490   1.403   1_455  A
C489        C494   1.406       .  A
C490        C491   1.399       .  A
C490        H499   1.083       .  S
C491        C492   1.404       .  A
C491        H500   1.083       .  S
C492        C498   1.407       .  A
C492        C493   1.414   1_655  A
C493        C495   1.403       .  A
C493        C494   1.408       .  A
C494        H501   1.084       .  S
C495        C496   1.400       .  A
C495        H502   1.083       .  S
C496        C497   1.406       .  A
C496        H503   1.083       .  S
C497        C498   1.408   1_455  A
C498        H504   1.084       .  S
C505        C510   1.405   1_455  A
C506        C507   1.399       .  A
C506        H515   1.083       .  S
C507        C508   1.403       .  A
C507        H516   1.084       .  S
C508        C514   1.409   1_455  A
C509        C511   1.402       .  A
C509        C510   1.407       .  A
C510        H517   1.084       .  S
C511        C512   1.400       .  A
C511        H518   1.084       .  S
C512        C513   1.408       .  A
C512        H519   1.083       .  S
C514        H520   1.084   1_655  S
C521        C522   1.404   1_655  A
C521        C526   1.403       .  A
C522        C523   1.399       .  A
C522        H531   1.083       .  S
C523        C524   1.403   1_455  A
C523        H532   1.083       .  S
C524        C530   1.407       .  A
C524        C525   1.415       .  A
C525        C527   1.401       .  A
C525        C526   1.404       .  A
C526        H533   1.084       .  S
C527        C528   1.396       .  A
C527        H534   1.083       .  S
C528        C529   1.406       .  A
C528        H535   1.083       .  S
C529        C530   1.407       .  A
C530        H536   1.084       .  S
C537        C538   1.404   1_655  A
C537        C542   1.405       .  A
C538        C539   1.402       .  A
C538        H547   1.083       .  S
C539        C540   1.405   1_455  A
C539        H548   1.083       .  S
C540        C546   1.408       .  A
C540        C541   1.414       .  A
C541        C543   1.401       .  A
C541        C542   1.402       .  A
C542        H549   1.085       .  S
C543        C544   1.395       .  A
C543        H550   1.084       .  S
C544        C545   1.404       .  A
C544        H551   1.083       .  S
C545        C546   1.408       .  A
C546        H552   1.084   1_655  S
C553        C558   1.399       .  A
C554        C555   1.397       .  A
C554        H563   1.083       .  S
C555        C556   1.403       .  A
C555        H564   1.084       .  S
C556        C562   1.404       .  A
C557        C559   1.399       .  A
C557        C558   1.401       .  A
C558        H565   1.085       .  S
C559        C560   1.394       .  A
C559        H566   1.084       .  S
C560        C561   1.408       .  A
C560        H567   1.083       .  S
C562        H568   1.084       .  S
C569        C570   1.403   1_545  A
C569        C574   1.406       .  A
C570        C571   1.397       .  A
C570        H579   1.083       .  S
C571        C572   1.402   1_565  A
C571        H580   1.083       .  S
C572        C578   1.404       .  A
C572        C573   1.414       .  A
C573        C575   1.404       .  A
C573        C574   1.408       .  A
C574        H581   1.084       .  S
C575        C576   1.401       .  A
C575        H582   1.083       .  S
C576        C577   1.405       .  A
C576        H583   1.083       .  S
C577        C578   1.407       .  A
C578        H584   1.084   1_545  S
C585        C586   1.405   1_545  A
C585        C590   1.402       .  A
C586        C587   1.397       .  A
C586        H595   1.083       .  S
C587        C588   1.401   1_565  A
C587        H596   1.083       .  S
C588        C594   1.405       .  A
C588        C589   1.416       .  A
C589        C591   1.400       .  A
C589        C590   1.404       .  A
C590        H597   1.084       .  S
C591        C592   1.395       .  A
C591        H598   1.083       .  S
C592        C593   1.406       .  A
C592        H599   1.083       .  S
C593        C594   1.404       .  A
C594        H600   1.084   1_545  S
C601        C606   1.406       .  A
C602        C603   1.397       .  A
C602        H611   1.083       .  S
C603        C604   1.400       .  A
C603        H612   1.084       .  S
C604        C610   1.406       .  A
C605        C607   1.402       .  A
C605        C606   1.403   1_545  A
C606        H613   1.084       .  S
C607        C608   1.395       .  A
C607        H614   1.084   1_545  S
C608        C609   1.402       .  A
C608        H615   1.083       .  S
C610        H616   1.084       .  S
C617        C618   1.404   1_565  A
C617        C622   1.403       .  A
C618        C619   1.393       .  A
C618        H627   1.084       .  S
C619        C620   1.400   1_545  A
C619        H628   1.083       .  S
C620        C626   1.401       .  A
C620        C621   1.416       .  A
C621        C623   1.402       .  A
C621        C622   1.406       .  A
C622        H629   1.084       .  S
C623        C624   1.398       .  A
C623        H630   1.083       .  S
C624        C625   1.406       .  A
C624        H631   1.083       .  S
C625        C626   1.403       .  A
C626        H632   1.084   1_565  S
C633        C634   1.404   1_565  A
C633        C638   1.404       .  A
C634        C635   1.398       .  A
C634        H643   1.083       .  S
C635        C636   1.402   1_545  A
C635        H644   1.083       .  S
C636        C642   1.405       .  A
C636        C637   1.414       .  A
C637        C639   1.401       .  A
C637        C638   1.403       .  A
C638        H645   1.084       .  S
C639        C640   1.396       .  A
C639        H646   1.083       .  S
C640        C641   1.405       .  A
C640        H647   1.083       .  S
C641        C642   1.405       .  A
C642        H648   1.084   1_565  S
C649        C654   1.411       .  A
C650        C651   1.399       .  A
C650        H659   1.083       .  S
C651        C652   1.402       .  A
C651        H660   1.084       .  S
C652        C658   1.407       .  A
C653        C655   1.405       .  A
C653        C654   1.407       .  A
C654        H661   1.084       .  S
C655        C656   1.399       .  A
C655        H662   1.083       .  S
C656        C657   1.402       .  A
C656        H663   1.083       .  S
C658        H664   1.084       .  S
C665        C666   1.406       .  A
C665        C670   1.410       .  A
C666        C667   1.399       .  A
C666        H675   1.083       .  S
C667        C668   1.402       .  A
C667        H676   1.084       .  S
C668        C674   1.407       .  A
C668        C669   1.414       .  A
C669        C671   1.405       .  A
C669        C670   1.411       .  A
C670        H677   1.084       .  S
C671        C672   1.402       .  A
C671        H678   1.084       .  S
C672        C673   1.405       .  A
C672        H679   1.083       .  S
C673        C674   1.406       .  A
C674        H680   1.084       .  S
C681        C682   1.405       .  A
C681        C686   1.405       .  A
C682        C683   1.398       .  A
C682        H691   1.083       .  S
C683        C684   1.402       .  A
C683        H692   1.084       .  S
C684        C690   1.408       .  A
C684        C685   1.415       .  A
C685        C687   1.401       .  A
C685        C686   1.408       .  A
C686        H693   1.084       .  S
C687        C688   1.399       .  A
C687        H694   1.084       .  S
C688        C689   1.407       .  A
C688        H695   1.083       .  S
C689        C690   1.406       .  A
C690        H696   1.084       .  S
C697        C698   1.404       .  A
C697        C702   1.406       .  A
C698        C699   1.399       .  A
C698        H707   1.083       .  S
C699        C700   1.403       .  A
C699        H708   1.084       .  S
C700        C706   1.408       .  A
C700        C701   1.414       .  A
C701        C703   1.402       .  A
C701        C702   1.409       .  A
C703        H710   1.084       .  S
C704        H711   1.083       .  S
C705        C706   1.410       .  A
C706        H712   1.084       .  S
C713        C714   1.405       .  A
C713        C718   1.404       .  A
C714        C715   1.397       .  A
C714        H723   1.084       .  S
C715        C716   1.401       .  A
C715        H724   1.083       .  S
C716        C722   1.406       .  A
C716        C717   1.416       .  A
C717        C719   1.401       .  A
C717        C718   1.408       .  A
C718        H725   1.084       .  S
C719        C720   1.398       .  A
C719        H726   1.083       .  S
C720        C721   1.407       .  A
C720        H727   1.083       .  S
C721        C722   1.405       .  A
C722        H728   1.084       .  S
C729        C730   1.405       .  A
C729        C734   1.407       .  A
C730        C731   1.396       .  A
C730        H739   1.083       .  S
C731        C732   1.401       .  A
C731        H740   1.084       .  S
C732        C738   1.404       .  A
C732        C733   1.414       .  A
C733        C735   1.404       .  A
C733        C734   1.408       .  A
C734        H741   1.084       .  S
C735        C736   1.401       .  A
C735        H742   1.083       .  S
C736        C737   1.405       .  A
C736        H743   1.083       .  S
C737        C738   1.406       .  A
C738        H744   1.085       .  S
