geometry optimzed in LAMMPS
_audit_creation_date              2020-11-30 
_audit_creation_method            'lammps2cif' 
_symmetry_space_group_name_H-M    'P1' 
_symmetry_Int_Tables_number       1 
_symmetry_cell_setting            triclinic 
loop_ 
_symmetry_equiv_pos_as_xyz 
  x,y,z 
_cell_length_a                    27.46658102 
_cell_length_b                    27.469851026051263 
_cell_length_c                    45.76436720282004 
_cell_angle_alpha                 89.98344933867776 
_cell_angle_beta                  90.01734724629496 
_cell_angle_gamma                 120.05199241094451 
loop_ 
_atom_site_label 
_atom_site_type_symbol 
_atom_site_fract_x 
_atom_site_fract_y 
_atom_site_fract_z 
_atom_site_charge 
C1          C  0.45766370  0.43575551  0.15326853     0.04800
C2          C  0.45984787  0.43320191  0.12272092    -0.11300
C3          C  0.49811412  0.48075732  0.10625687     0.02300
C4          C  0.53470524  0.53060399  0.12164358    -0.09800
C5          C  0.53434599  0.53222065  0.15225131     0.04800
C6          C  0.49543025  0.48501405  0.16797376    -0.09300
H7          H  0.43186732  0.39363905  0.11216900     0.10400
H8          H  0.56379401  0.56860844  0.11017062     0.07900
H9          H  0.49467595  0.48653930  0.19164447     0.07800
C10         C  0.45645987  0.43451838  0.02673433     0.04800
C11         C  0.45356226  0.43797238  0.05719860    -0.11300
C12         C  0.50036085  0.47821275  0.07342770     0.02300
C13         C  0.54953112  0.51582320  0.05784462    -0.09800
C14         C  0.55133619  0.51414515  0.02727208     0.04800
C15         C  0.50506974  0.47305846  0.01181106    -0.09300
H16         H  0.41443747  0.40917198  0.06788863     0.10400
H17         H  0.58698160  0.54655830  0.06914158     0.07900
H18         H  0.50673611  0.47145429  0.48819188     0.07800
C19         C  0.49646549  0.96480976  0.15415248     0.04800
C20         C  0.49895210  0.96845847  0.12354044    -0.11300
C21         C  0.45217705  0.96125320  0.10698223     0.02300
C22         C  0.40341687  0.95131713  0.12244694    -0.09800
C23         C  0.40223762  0.95088554  0.15302213     0.04800
C24         C  0.44843056  0.95690651  0.16881866    -0.09300
H25         H  0.53780796  0.97732992  0.11310010     0.10400
H26         H  0.36564074  0.94349491  0.11116226     0.07900
H27         H  0.44699198  0.95542475  0.19250566     0.07800
C28         C  0.49561461  0.96007073  0.02731487     0.04800
C29         C  0.49389810  0.95685335  0.05791727    -0.11300
C30         C  0.45392296  0.96401048  0.07401899     0.02300
C31         C  0.41521490  0.97349211  0.05809547    -0.09800
C32         C  0.41496068  0.97348012  0.02749345     0.04800
C33         C  0.45562568  0.96751491  0.01214910    -0.09300
H34         H  0.52374217  0.94823027  0.06871866     0.10400
H35         H  0.38486534  0.98114117  0.06904389     0.07900
H36         H  0.45568194  0.96808875  0.48843237     0.07800
C37         C  0.96353001  0.46975422  0.15329135     0.04800
C38         C  0.95876425  0.46691126  0.12273710    -0.11300
C39         C  0.96679244  0.42746637  0.10667045     0.02300
C40         C  0.97844201  0.39017131  0.12250077    -0.09800
C41         C  0.98036788  0.39120262  0.15311066     0.04800
C42         C  0.97355614  0.43140428  0.16841977    -0.09300
H43         H  0.94846622  0.49553029  0.11185875     0.10400
H44         H  0.98652469  0.36022298  0.11138832     0.07900
H45         H  0.97602209  0.43282633  0.19208671     0.07800
C46         C  0.96862999  0.47024275  0.02660670     0.04800
C47         C  0.95917212  0.42160278  0.01197298    -0.11300
C48         C  0.95161393  0.37479809  0.02778939     0.02300
C49         C  0.95208824  0.37606087  0.05839580    -0.09800
C50         C  0.96335856  0.42531511  0.07377071     0.04800
C51         C  0.97199972  0.47257269  0.05722267    -0.09300
H52         H  0.95848290  0.42062858  0.48827839     0.10400
H53         H  0.94366883  0.33822748  0.06986402     0.07900
H54         H  0.98205593  0.51173068  0.06775109     0.07800
O55         O  0.85148529  0.00613502  0.30809867    -0.86500
C56         C  0.14019779  0.11637933  0.38173249     1.13600
O57         O  0.91563618  0.95694389  0.34078952    -1.34300
O58         O  0.10176394  0.12702265  0.30746803    -0.88000
O59         O  0.80088704  0.91191978  0.30973498    -0.88600
O60         O  0.91265851  0.89800695  0.27969143    -0.77500
O61         O  0.97674751  0.06870410  0.31280092    -0.99500
C62         C  0.07198658  0.95166505  0.28591459     1.23600
O63         O  0.97200325  0.89582787  0.34023509    -1.34400
Mn64       Mn  0.97445386  0.95568515  0.37167302     1.82100
O65         O  0.02867164  0.95285240  0.27876181    -0.76500
O66         O  0.14557502  0.07671126  0.30605493    -0.85900
C67         C  0.07606257  0.95461866  0.39318325     1.14700
C68         C  0.13839878  0.11643666  0.29706068     1.09400
O69         O  0.91692658  0.89839536  0.40182735    -0.77500
O70         O  0.03325191  0.01341994  0.33992864    -1.31200
O71         O  0.86163387  0.84508274  0.36873768    -0.96700
C72         C  0.96804854  0.78996594  0.29755108     1.08100
Mn73       Mn  0.11226565  0.01577987  0.33909752     1.48600
O74         O  0.92145209  0.78258927  0.30719794    -0.85900
Mn75       Mn  0.83476301  0.88250842  0.34172638     1.49600
O76         O  0.85203020  0.00688201  0.37341689    -0.89800
C77         C  0.97655714  0.05879010  0.28682415     1.21300
C78         C  0.81424788  0.96035244  0.38398135     1.13400
Mn79       Mn  0.97267832  0.95509537  0.30895327     1.81000
O80         O  0.08498771  0.95321324  0.36715480    -0.94900
Mn81       Mn  0.91345634  0.03366398  0.34057175     1.49300
C82         C  0.81127353  0.95916645  0.29942857     1.09900
Mn83       Mn  0.04644534  0.88947527  0.33979350     1.49900
C84         C  0.97057276  0.79015447  0.38223262     1.12800
O85         O  0.85915246  0.84513065  0.31348142    -1.00700
O86         O  0.14831015  0.07810547  0.37137349    -0.90400
C87         C  0.86804654  0.85532622  0.28746345     1.24100
O88         O  0.08266890  0.95194395  0.31179378    -1.01100
O89         O  0.10188819  0.12590043  0.37287796    -0.88500
O90         O  0.01788263  0.82833487  0.37270612    -0.88100
O91         O  0.80462007  0.91258658  0.37500455    -0.88100
Mn92       Mn  0.03995293  0.09434846  0.34029750     1.47900
O93         O  0.03264989  0.95510579  0.40087702    -0.76600
C94         C  0.87287013  0.85457244  0.39462441     1.17100
O95         O  0.97412279  0.01387289  0.27929043    -0.75300
O96         O  0.97606865  0.01428618  0.40144813    -0.74900
Mn97       Mn  0.89534894  0.81673824  0.34046763     1.51100
O98         O  0.01574433  0.82700279  0.30734278    -0.87300
O99         O  0.97685628  0.06852185  0.36806659    -0.94800
O100        O  0.92355454  0.78181129  0.37259091    -0.89800
C101        C  0.97610220  0.05810337  0.39401909     1.14900
C102        C  0.95115413  0.24577605  0.48331564     0.18700
C103        C  0.90450018  0.20346910  0.46842945    -0.10400
C104        C  0.90988925  0.16357544  0.45184082    -0.11200
C105        C  0.96195165  0.16580285  0.45005332     0.20300
C106        C  0.00839923  0.20773641  0.46519144    -0.13300
C107        C  0.00299886  0.24755442  0.48178016    -0.11600
C108        C  0.96819983  0.12644593  0.43184357     0.01300
C109        C  0.97284655  0.09467220  0.41539039    -0.31600
C110        C  0.94672416  0.28852420  0.49941990     0.02600
C111        C  0.94643212  0.32644917  0.01254245    -0.33200
H112        H  0.86423706  0.20170981  0.46937447     0.13700
H113        H  0.87370014  0.13145226  0.44015166     0.13500
H114        H  0.04889792  0.21005272  0.46389128     0.13400
H115        H  0.03940792  0.28013255  0.49312246     0.12400
C116        C  0.97229893  0.67904555  0.44105044     0.18700
C117        C  0.92644860  0.62403713  0.44173721    -0.10400
C118        C  0.92784492  0.58345293  0.45966228    -0.11200
C119        C  0.97509884  0.59750036  0.47705991     0.20300
C120        C  0.02099761  0.65253944  0.47642196    -0.13300
C121        C  0.01961243  0.69318570  0.45845814    -0.11600
C122        C  0.97617378  0.55519120  0.49536353     0.01300
C123        C  0.97408307  0.51749532  0.01002356    -0.31600
C124        C  0.97126053  0.72025019  0.42183022     0.02600
C125        C  0.97043015  0.75311561  0.40454605    -0.33200
H126        H  0.88974761  0.61244359  0.42830013     0.13700
H127        H  0.89247925  0.54065319  0.95929090     0.13500
H128        H  0.05783107  0.66395977  0.48971031     0.13400
H129        H  0.05547284  0.73547095  0.45802968     0.12400
C130        C  0.98502635  0.17934754  0.23156949     0.18700
C131        C  0.93509262  0.17836901  0.22406968    -0.10400
C132        C  0.93688730  0.22231005  0.20775860    -0.11200
C133        C  0.98862677  0.26763323  0.19883518     0.20300
C134        C  0.03866080  0.26858963  0.20622609    -0.13300
C135        C  0.03686675  0.22455482  0.22257344    -0.11600
C136        C  0.98985950  0.31308366  0.18238999     0.01300
C137        C  0.98746340  0.34964674  0.16890280    -0.31600
C138        C  0.98283778  0.13492964  0.24935239     0.02600
C139        C  0.97989324  0.09884795  0.26555025    -0.33200
H140        H  0.89479661  0.14385410  0.23102383     0.13700
H141        H  0.89792954  0.22109846  0.20224316     0.13500
H142        H  0.07894003  0.30341591  0.19951041     0.13400
H143        H  0.07580285  0.22595537  0.22836859     0.12400
C144        C  0.95890776  0.59347232  0.20090311     0.18700
C145        C  0.00609529  0.64774284  0.20078985    -0.10400
C146        C  0.00770876  0.68963327  0.21890386    -0.11200
C147        C  0.96212513  0.67752059  0.23723887     0.20300
C148        C  0.91468988  0.62343745  0.23708932    -0.13300
C149        C  0.91308841  0.58156489  0.21899192    -0.11600
C150        C  0.96475490  0.71969601  0.25703292     0.01300
C151        C  0.96659504  0.75309336  0.27481088    -0.31600
C152        C  0.95832300  0.54962051  0.18325879     0.02600
C153        C  0.95939351  0.51290794  0.16922937    -0.33200
H154        H  0.04187797  0.65746584  0.18698502     0.13700
H155        H  0.04471910  0.73118025  0.21888564     0.13500
H156        H  0.87926476  0.61344778  0.25123301     0.13400
H157        H  0.87645238  0.53977349  0.21937133     0.12400
C158        C  0.61936254  0.95566023  0.47981088     0.18700
C159        C  0.67430310  0.00165121  0.48103517    -0.10800
C160        C  0.71635393  0.00313891  0.46311831    -0.11200
C161        C  0.70365667  0.95860468  0.44390787     0.20300
C162        C  0.64886313  0.91239573  0.44290375    -0.13300
C163        C  0.60684864  0.91092639  0.46079389    -0.11600
C164        C  0.74602948  0.96094428  0.42444710     0.01300
C165        C  0.77895306  0.96158594  0.40677855    -0.31600
C166        C  0.57549639  0.95517886  0.49732955     0.02600
C167        C  0.53900826  0.95648232  0.01136392    -0.33200
H168        H  0.68476560  0.03697797  0.99549057     0.13700
H169        H  0.75849285  0.03920200  0.46400121     0.13500
H170        H  0.63848410  0.87782680  0.42805347     0.13400
H171        H  0.56452581  0.87525156  0.45956443     0.12400
C172        C  0.28628831  0.97482851  0.48307426     0.18700
C173        C  0.29435054  0.01981116  0.46528242    -0.10400
C174        C  0.24969763  0.01593194  0.44868887    -0.11200
C175        C  0.19672272  0.96702983  0.44976711     0.20300
C176        C  0.18837345  0.92247666  0.46798816    -0.13300
C177        C  0.23301436  0.92638010  0.48459933    -0.11600
C178        C  0.15185238  0.96169440  0.43119646     0.01300
C179        C  0.11603421  0.95767615  0.41445113    -0.31600
C180        C  0.33293399  0.97740954  0.49894465     0.02600
C181        C  0.37142701  0.97750002  0.01187304    -0.33200
H182        H  0.33633640  0.05662345  0.96264558     0.13700
H183        H  0.25671089  0.05064781  0.43466439     0.13500
H184        H  0.14767649  0.88442062  0.46898127     0.13400
H185        H  0.22622771  0.89130150  0.49825899     0.12400
C186        C  0.70189478  0.96339161  0.24034304     0.18700
C187        C  0.69878196  0.01269328  0.23824632    -0.10400
C188        C  0.65883397  0.01453701  0.21996664    -0.11200
C189        C  0.62172987  0.96709545  0.20364558     0.20300
C190        C  0.62498884  0.91785952  0.20565097    -0.13300
C191        C  0.66493496  0.91600694  0.22393779    -0.11600
C192        C  0.57954825  0.96844983  0.18538545     0.01300
C193        C  0.54278916  0.96807640  0.17070260    -0.31600
C194        C  0.74192960  0.96107007  0.25990699     0.02600
C195        C  0.77438240  0.95970514  0.27726396    -0.33200
H196        H  0.72693944  0.04954021  0.25089782     0.13700
H197        H  0.65663231  0.05277362  0.21871474     0.13500
H198        H  0.59642028  0.88081979  0.19324378     0.13400
H199        H  0.66672304  0.87756594  0.22544341     0.12400
C200        C  0.26982675  0.94374198  0.19747942     0.18700
C201        C  0.24805308  0.97802377  0.18878599    -0.10400
C202        C  0.20557751  0.97907887  0.20519925    -0.11200
C203        C  0.18468194  0.94581269  0.23035150     0.20300
C204        C  0.20623699  0.91131317  0.23891765    -0.13300
C205        C  0.24868206  0.91028411  0.22253401    -0.11600
C206        C  0.14245944  0.94814579  0.24797209     0.01300
C207        C  0.10892247  0.94987474  0.26431714    -0.31600
C208        C  0.31490822  0.94404278  0.18124721     0.02600
C209        C  0.35395916  0.94580628  0.16823463    -0.33200
H210        H  0.26424562  0.00425829  0.16951511     0.13700
H211        H  0.18943316  0.00612535  0.19844898     0.13500
H212        H  0.19059385  0.88562039  0.25840288     0.13400
H213        H  0.26534472  0.88381644  0.22953912     0.12400
C214        C  0.68123991  0.64096238  0.48218884     0.18700
C215        C  0.73074473  0.64197821  0.47360145    -0.10400
C216        C  0.77168791  0.68758731  0.45752547    -0.11200
C217        C  0.76333337  0.73238831  0.45000179     0.20300
C218        C  0.71396342  0.73140443  0.45871528    -0.13300
C219        C  0.67310580  0.68588545  0.47475580    -0.11600
C220        C  0.80415244  0.77820624  0.43235032     0.01300
C221        C  0.83655382  0.81477675  0.41611756    -0.31600
C222        C  0.63825118  0.59394645  0.49834242     0.02600
C223        C  0.59986665  0.55630227  0.01164303    -0.33200
H224        H  0.73750903  0.60747561  0.47915600     0.13700
H225        H  0.80954193  0.68769288  0.45075434     0.13500
H226        H  0.70683117  0.76556621  0.45288779     0.13400
H227        H  0.63498734  0.68555084  0.48120995     0.12400
C228        C  0.33060437  0.30908274  0.47872813     0.18700
C229        C  0.34251107  0.27068567  0.46489183    -0.10400
C230        C  0.30245852  0.22887200  0.44665441    -0.11200
C231        C  0.25023153  0.22519097  0.44215096     0.20300
C232        C  0.23804742  0.26310888  0.45629043    -0.13300
C233        C  0.27809973  0.30491732  0.47453028    -0.11600
C234        C  0.21011670  0.18418825  0.42211020     0.01300
C235        C  0.17744822  0.15197332  0.40428933    -0.31600
C236        C  0.37284218  0.35354571  0.49652682     0.02600
C237        C  0.40994229  0.39057143  0.01070014    -0.33200
H238        H  0.37900082  0.26766513  0.97176201     0.13700
H239        H  0.31247067  0.19993723  0.43578577     0.13500
H240        H  0.19790404  0.26081779  0.45291140     0.13400
H241        H  0.26839385  0.33436053  0.48505975     0.12400
C242        C  0.74614795  0.74651819  0.23157860     0.18700
C243        C  0.74936496  0.70047433  0.22083495    -0.10400
C244        C  0.70553455  0.65948791  0.20396426    -0.11200
C245        C  0.65808783  0.66416057  0.19771357     0.20300
C246        C  0.65496535  0.71046158  0.20824845    -0.13300
C247        C  0.69890979  0.75156133  0.22515623    -0.11600
C248        C  0.61242949  0.62054809  0.18109156     0.01300
C249        C  0.57578036  0.58152846  0.16766636    -0.31600
C250        C  0.79050800  0.78726991  0.24997294     0.02600
C251        C  0.82696027  0.81929674  0.26637611    -0.33200
H252        H  0.78550491  0.69596426  0.22574513     0.13700
H253        H  0.70840716  0.62385700  0.19601865     0.13500
H254        H  0.61846548  0.71450972  0.20362905     0.13400
H255        H  0.69582283  0.78687185  0.23343399     0.12400
C256        C  0.25232162  0.22508986  0.23781797     0.18700
C257        C  0.23780037  0.24601625  0.21341639    -0.10400
C258        C  0.27988869  0.28651439  0.19542748    -0.11200
C259        C  0.33676553  0.30638485  0.20172235     0.20300
C260        C  0.35125311  0.28509700  0.22597436    -0.13300
C261        C  0.30919226  0.24459820  0.24394422    -0.11600
C262        C  0.38014209  0.34995137  0.18394158     0.01300
C263        C  0.41594736  0.38807516  0.16963985    -0.31600
C264        C  0.20926125  0.18489936  0.25708738     0.02600
C265        C  0.17530595  0.15268552  0.27450394    -0.33200
H266        H  0.19404924  0.23148340  0.20847868     0.13700
H267        H  0.26810956  0.30277452  0.17681912     0.13500
H268        H  0.39502002  0.30023065  0.23116951     0.13400
H269        H  0.32102722  0.22893209  0.26278289     0.12400
C270        C  0.45742578  0.43598299  0.65326053     0.04800
C271        C  0.45962693  0.43344264  0.62271367    -0.11300
C272        C  0.49792832  0.48099278  0.60625950     0.02300
C273        C  0.53454008  0.53082091  0.62165541    -0.09800
C274        C  0.53416105  0.53242173  0.65226366     0.04800
C275        C  0.49520744  0.48522080  0.66797602    -0.09300
H276        H  0.43163457  0.39389194  0.61215418     0.10400
H277        H  0.56366307  0.56882008  0.61018924     0.07900
H278        H  0.49444184  0.48673064  0.69164695     0.07800
C279        C  0.45631713  0.43480746  0.52672497     0.04800
C280        C  0.45339189  0.43825085  0.55718928    -0.11300
C281        C  0.50019609  0.47845569  0.57343134     0.02300
C282        C  0.54939949  0.51603162  0.55786235    -0.09800
C283        C  0.55123133  0.51435495  0.52729161     0.04800
C284        C  0.50496020  0.47331491  0.51181794    -0.09300
H285        H  0.41424813  0.40946812  0.56786894     0.10400
H286        H  0.58685486  0.54673298  0.56916895     0.07900
H287        H  0.50681816  0.47119512  0.98818424     0.07800
C288        C  0.49659057  0.96489154  0.65411592     0.04800
C289        C  0.49896963  0.96839040  0.62349731    -0.11300
C290        C  0.45214256  0.96112630  0.60696615     0.02300
C291        C  0.40343602  0.95125814  0.62246015    -0.09800
C292        C  0.40236062  0.95097855  0.65303498     0.04800
C293        C  0.44860870  0.95707531  0.66880868    -0.09300
H294        H  0.53778199  0.97719426  0.61302987     0.10400
H295        H  0.36561982  0.94337596  0.61119760     0.07900
H296        H  0.44724972  0.95570762  0.69249761     0.07800
C297        C  0.49531589  0.95969359  0.52727165     0.04800
C298        C  0.49368837  0.95654827  0.55787680    -0.11300
C299        C  0.45377830  0.96377215  0.57400040     0.02300
C300        C  0.41503979  0.97323957  0.55809736    -0.09800
C301        C  0.41469600  0.97315421  0.52749626     0.04800
C302        C  0.45529870  0.96712616  0.51212848    -0.09300
H303        H  0.52355774  0.94794428  0.56866469     0.10400
H304        H  0.38474073  0.98094351  0.56906110     0.07900
H305        H  0.45607274  0.96852498  0.98845354     0.07800
C306        C  0.96365589  0.46979378  0.65330322     0.04800
C307        C  0.95892701  0.46699222  0.62274752    -0.11300
C308        C  0.96698238  0.42757450  0.60667209     0.02300
C309        C  0.97860798  0.39025422  0.62249482    -0.09800
C310        C  0.98049460  0.39124183  0.65310568     0.04800
C311        C  0.97366379  0.43142347  0.66842375    -0.09300
H312        H  0.94864451  0.49562723  0.61187416     0.10400
H313        H  0.98670713  0.36032337  0.61137535     0.07900
H314        H  0.97610430  0.43281647  0.69209144     0.07800
C315        C  0.96900014  0.47050681  0.52662138     0.04800
C316        C  0.95957057  0.42189190  0.51197009    -0.11300
C317        C  0.95195955  0.37505091  0.52777048     0.02300
C318        C  0.95236624  0.37625730  0.55837726    -0.09800
C319        C  0.96361523  0.42548615  0.57377057     0.04800
C320        C  0.97229960  0.47277794  0.55723984    -0.09300
H321        H  0.95803889  0.42029802  0.98828204     0.10400
H322        H  0.94390602  0.33839836  0.56983216     0.07900
H323        H  0.98233013  0.51191508  0.56778427     0.07800
O324        O  0.85149519  0.00604623  0.80808117    -0.86500
C325        C  0.14020005  0.11636102  0.88173089     1.13600
O326        O  0.91567695  0.95690847  0.84079457    -1.34300
O327        O  0.10176819  0.12701047  0.80745812    -0.88000
O328        O  0.80094062  0.91182797  0.80971217    -0.88600
O329        O  0.91271000  0.89793302  0.77970937    -0.77500
O330        O  0.97675852  0.06866643  0.81278612    -0.99500
C331        C  0.07203946  0.95166433  0.78590946     1.23600
O332        O  0.97207780  0.89582607  0.84025272    -1.34400
Mn333      Mn  0.97452023  0.95569131  0.87167979     1.82100
O334        O  0.02871020  0.95283112  0.77876631    -0.76500
O335        O  0.14559645  0.07671679  0.80603144    -0.85900
C336        C  0.07617303  0.95468542  0.89318329     1.14700
C337        C  0.13839796  0.11643031  0.79703999     1.09400
O338        O  0.91700401  0.89841592  0.90184750    -0.77500
O339        O  0.03329291  0.01341410  0.83992288    -1.31200
O340        O  0.86169274  0.84507452  0.86877072    -0.96700
C341        C  0.96813202  0.78993250  0.79760384     1.08100
Mn342      Mn  0.11232233  0.01579977  0.83908413     1.48600
O343        O  0.92153948  0.78253727  0.80726723    -0.85900
Mn344      Mn  0.83481254  0.88245722  0.84173163     1.49600
O345        O  0.85204655  0.00683654  0.87340087    -0.89800
C346        C  0.97656197  0.05873824  0.78681050     1.21300
C347        C  0.81425718  0.96030890  0.88396206     1.13400
Mn348      Mn  0.97271861  0.95506314  0.80895926     1.81000
O349        O  0.08507862  0.95325756  0.86715350    -0.94900
Mn350      Mn  0.91346946  0.03361508  0.84055789     1.49300
C351        C  0.81130886  0.95906791  0.79940239     1.09900
Mn352      Mn  0.04653643  0.88949951  0.83980590     1.49900
C353        C  0.97070012  0.79022410  0.88228616     1.12800
O354        O  0.85922751  0.84506450  0.81350907    -1.00700
O355        O  0.14834930  0.07812306  0.87135687    -0.90400
C356        C  0.86812351  0.85523154  0.78748879     1.24100
O357        O  0.08274213  0.95195153  0.81178746    -1.01100
O358        O  0.10188828  0.12587821  0.87287451    -0.88500
O359        O  0.01800050  0.82838182  0.87273476    -0.88100
O360        O  0.80463018  0.91254228  0.87498739    -0.88100
Mn361      Mn  0.03996501  0.09432987  0.84028628     1.47900
O362        O  0.03275138  0.95515499  0.90088126    -0.76600
C363        C  0.87293313  0.85459333  0.89465700     1.17100
O364        O  0.97412948  0.01381652  0.77928519    -0.75300
O365        O  0.97612965  0.01430473  0.90144409    -0.74900
Mn366      Mn  0.89543424  0.81672394  0.84051600     1.51100
O367        O  0.01583323  0.82700650  0.80736991    -0.87300
O368        O  0.97686998  0.06850128  0.86805327    -0.94800
O369        O  0.92367135  0.78187211  0.87265839    -0.89800
C370        C  0.97613605  0.05810482  0.89400768     1.14900
C371        C  0.95093398  0.24558528  0.98334082     0.18700
C372        C  0.90445379  0.20357963  0.96821335    -0.10400
C373        C  0.90992571  0.16375334  0.95160967    -0.11200
C374        C  0.96189808  0.16574707  0.95004589     0.20300
C375        C  0.00816896  0.20737699  0.96542393    -0.13300
C376        C  0.00268480  0.24712849  0.98202924    -0.11600
C377        C  0.96823540  0.12645198  0.93182993     0.01300
C378        C  0.97289726  0.09469025  0.91537456    -0.31600
C379        C  0.94644212  0.28828941  0.99945299     0.02600
C380        C  0.94675760  0.32670563  0.51250985    -0.33200
H381        H  0.86426784  0.20200769  0.96898200     0.13700
H382        H  0.87387483  0.13186510  0.93973558     0.13500
H383        H  0.04859865  0.20951065  0.96429936     0.13400
H384        H  0.03896236  0.27947716  0.99355789     0.12400
C385        C  0.97226542  0.67899897  0.94107425     0.18700
C386        C  0.92668245  0.62382416  0.94142094    -0.10400
C387        C  0.92798232  0.58316043  0.95932172    -0.11200
C388        C  0.97487229  0.59729579  0.97703493     0.20300
C389        C  0.02050488  0.65249830  0.97673415    -0.13300
C390        C  0.01921682  0.69322404  0.95879458    -0.11600
C391        C  0.97584345  0.55492491  0.99533078     0.01300
C392        C  0.97445559  0.51777722  0.51005339    -0.31600
C393        C  0.97134103  0.72029893  0.92188343     0.02600
C394        C  0.97056880  0.75320539  0.90460741    -0.33200
H395        H  0.89026639  0.61216686  0.92773985     0.13700
H396        H  0.89213308  0.54107028  0.45989234     0.13500
H397        H  0.05705587  0.66398850  0.99027033     0.13400
H398        H  0.05487176  0.73564012  0.95863078     0.12400
C399        C  0.98501803  0.17928785  0.73154489     0.18700
C400        C  0.93511553  0.17846440  0.72414898    -0.10400
C401        C  0.93694326  0.22242475  0.70784015    -0.11200
C402        C  0.98868446  0.26761415  0.69881427     0.20300
C403        C  0.03868590  0.26841449  0.70610014    -0.13300
C404        C  0.03685894  0.22436065  0.72244535    -0.11600
C405        C  0.98995244  0.31308600  0.68237094     0.01300
C406        C  0.98757515  0.34966602  0.66888902    -0.31600
C407        C  0.98281003  0.13485648  0.74932792     0.02600
C408        C  0.97987372  0.09877930  0.76552883    -0.33200
H409        H  0.89482019  0.14405633  0.73118238     0.13700
H410        H  0.89801041  0.22133270  0.70240615     0.13500
H411        H  0.07896714  0.30313477  0.69930445     0.13400
H412        H  0.07577326  0.22564322  0.72815861     0.12400
C413        C  0.95903749  0.59348689  0.70093863     0.18700
C414        C  0.00632925  0.64768951  0.70093465    -0.10400
C415        C  0.00793124  0.68956347  0.71905704    -0.11200
C416        C  0.96223213  0.67750186  0.73729086     0.20300
C417        C  0.91469644  0.62348895  0.73703238    -0.13300
C418        C  0.91310629  0.58163251  0.71892644    -0.11600
C419        C  0.96483831  0.71965364  0.75709299     0.01300
C420        C  0.96667048  0.75304537  0.77487132    -0.31600
C421        C  0.95845045  0.54964398  0.68328621     0.02600
C422        C  0.95951680  0.51293665  0.66925015    -0.33200
H423        H  0.04219796  0.65737000  0.68720866     0.13700
H424        H  0.04501884  0.73105586  0.71912436     0.13500
H425        H  0.87918093  0.61353947  0.75109772     0.13400
H426        H  0.87638841  0.53989283  0.71922072     0.12400
C427        C  0.61963805  0.95592912  0.97988240     0.18700
C428        C  0.67457034  0.00195193  0.98100952    -0.10800
C429        C  0.71655097  0.00335357  0.96306804    -0.11200
C430        C  0.70379190  0.95870160  0.94393071     0.20300
C431        C  0.64901098  0.91245870  0.94302771    -0.13300
C432        C  0.60706706  0.91107498  0.96094245    -0.11600
C433        C  0.74608557  0.96095479  0.92444032     0.01300
C434        C  0.77896720  0.96155151  0.90675872    -0.31600
C435        C  0.57582481  0.95553737  0.99740958     0.02600
C436        C  0.53867498  0.95609039  0.51129530    -0.33200
H437        H  0.68445405  0.03658508  0.49557658     0.13700
H438        H  0.75868145  0.03944271  0.96387272     0.13500
H439        H  0.63858443  0.87779786  0.92823512     0.13400
H440        H  0.56474973  0.87537366  0.95978844     0.12400
C441        C  0.28663097  0.97522982  0.98301959     0.18700
C442        C  0.29508661  0.01951232  0.96455471    -0.10400
C443        C  0.25041745  0.01560473  0.94796564    -0.11200
C444        C  0.19702749  0.96736937  0.94971664     0.20300
C445        C  0.18830342  0.92354580  0.96860367    -0.13300
C446        C  0.23296431  0.92748063  0.98521256    -0.11600
C447        C  0.15206949  0.96191580  0.93117432     0.01300
C448        C  0.11619137  0.95781444  0.91444528    -0.31600
C449        C  0.33324474  0.97775935  0.99890175     0.02600
C450        C  0.37113861  0.97717014  0.51190103    -0.33200
H451        H  0.33529677  0.05746833  0.46389455     0.13700
H452        H  0.25772266  0.04975512  0.93342699     0.13500
H453        H  0.14728150  0.88600784  0.97012429     0.13400
H454        H  0.22586929  0.89294471  0.99939593     0.12400
C455        C  0.70198992  0.96333945  0.74028419     0.18700
C456        C  0.69924219  0.01281930  0.73800733    -0.10400
C457        C  0.65932617  0.01472123  0.71972472    -0.11200
C458        C  0.62188678  0.96715914  0.70357989     0.20300
C459        C  0.62478275  0.91774479  0.70576442    -0.13300
C460        C  0.66469608  0.91583416  0.72405374    -0.11600
C461        C  0.57972674  0.96857146  0.68532267     0.01300
C462        C  0.54295742  0.96820005  0.67064705    -0.31600
C463        C  0.74199258  0.96097139  0.75985743     0.02600
C464        C  0.77442617  0.95959068  0.77722413    -0.33200
H465        H  0.72765934  0.04976386  0.75052243     0.13700
H466        H  0.65740957  0.05309889  0.71833527     0.13500
H467        H  0.59595446  0.88061150  0.69349600     0.13400
H468        H  0.66619824  0.87725648  0.72569869     0.12400
C469        C  0.26989828  0.94390727  0.69741617     0.18700
C470        C  0.24974515  0.97990677  0.68940865    -0.10400
C471        C  0.20723236  0.98092598  0.70580463    -0.11200
C472        C  0.18467126  0.94590195  0.73025160     0.20300
C473        C  0.20457979  0.90966930  0.73811508    -0.13300
C474        C  0.24706469  0.90867685  0.72174945    -0.11600
C475        C  0.14248823  0.94821694  0.74791818     0.01300
C476        C  0.10897652  0.94991295  0.76429715    -0.31600
C477        C  0.31504734  0.94421946  0.68124332     0.02600
C478        C  0.35411783  0.94596095  0.66826074    -0.33200
H479        H  0.26724214  0.00750523  0.67069921     0.13700
H480        H  0.19237314  0.00931580  0.69960570     0.13500
H481        H  0.18764284  0.88260184  0.75705584     0.13400
H482        H  0.26245675  0.88085623  0.72822141     0.12400
C483        C  0.68133992  0.64092868  0.98222830     0.18700
C484        C  0.73075073  0.64186570  0.97352560    -0.10400
C485        C  0.77169794  0.68751254  0.95747024    -0.11200
C486        C  0.76344662  0.73243544  0.95007947     0.20300
C487        C  0.71418510  0.73154512  0.95892221    -0.13300
C488        C  0.67332276  0.68598765  0.97494305    -0.11600
C489        C  0.80423729  0.77826387  0.93241532     0.01300
C490        C  0.83661959  0.81481929  0.91616548    -0.31600
C491        C  0.63832164  0.59384633  0.99833895     0.02600
C492        C  0.59979589  0.55645974  0.51167008    -0.33200
H493        H  0.73743137  0.60726475  0.97896723     0.13700
H494        H  0.80946672  0.68754438  0.95060275     0.13500
H495        H  0.70713035  0.76580196  0.95320208     0.13400
H496        H  0.63528271  0.68572262  0.98148928     0.12400
C497        C  0.33041206  0.30883167  0.97886632     0.18700
C498        C  0.34015129  0.26732600  0.96711368    -0.10400
C499        C  0.30005513  0.22556920  0.94886227    -0.11200
C500        C  0.24996175  0.22506825  0.94226598     0.20300
C501        C  0.23989945  0.26610812  0.95433832    -0.13300
C502        C  0.27998635  0.30785124  0.97258593    -0.11600
C503        C  0.20997759  0.18406299  0.92218257     0.01300
C504        C  0.17739109  0.15189668  0.90432003    -0.31600
C505        C  0.37285697  0.35324151  0.99660510     0.02600
C506        C  0.40982542  0.39087740  0.51066893    -0.33200
H507        H  0.38296700  0.27349793  0.46792397     0.13700
H508        H  0.30842307  0.19419069  0.93960288     0.13500
H509        H  0.20142806  0.26628106  0.94933038     0.13400
H510        H  0.27197799  0.33971891  0.98148552     0.12400
C511        C  0.74618998  0.74643792  0.73161474     0.18700
C512        C  0.74939132  0.70045604  0.72075846    -0.10400
C513        C  0.70550548  0.65953456  0.70388794    -0.11200
C514        C  0.65802163  0.66421212  0.69775076     0.20300
C515        C  0.65491527  0.71045080  0.70840022    -0.13300
C516        C  0.69891380  0.75148413  0.72530663    -0.11600
C517        C  0.61231166  0.62066663  0.68112532     0.01300
C518        C  0.57562697  0.58169358  0.66769058    -0.31600
C519        C  0.79060121  0.78712963  0.75000598     0.02600
C520        C  0.82705797  0.81915705  0.76640635    -0.33200
H521        H  0.78556110  0.69594378  0.72557972     0.13700
H522        H  0.70836532  0.62394988  0.69585324     0.13500
H523        H  0.61838767  0.71450174  0.70387003     0.13400
H524        H  0.69584018  0.78674719  0.73367220     0.12400
C525        C  0.25218963  0.22514663  0.73777531     0.18700
C526        C  0.23760956  0.24601362  0.71337038    -0.10400
C527        C  0.27965964  0.28656639  0.69538585    -0.11200
C528        C  0.33655356  0.30654842  0.70168994     0.20300
C529        C  0.35109839  0.28532097  0.72594543    -0.13300
C530        C  0.30907758  0.24476911  0.74391014    -0.11600
C531        C  0.37989189  0.35015635  0.68391316     0.01300
C532        C  0.41569256  0.38829950  0.66962081    -0.31600
C533        C  0.20917344  0.18490835  0.75704497     0.02600
C534        C  0.17526509  0.15267368  0.77447119    -0.33200
H535        H  0.19384276  0.23139285  0.70842721     0.13700
H536        H  0.26783719  0.30277926  0.67677392     0.13500
H537        H  0.39487901  0.30054119  0.73114678     0.13400
H538        H  0.32095609  0.22915072  0.76275214     0.12400
loop_ 
_geom_bond_atom_site_label_1 
_geom_bond_atom_site_label_2 
_geom_bond_distance 
_geom_bond_site_symmetry_2 
_ccdc_geom_bond_type 
C1            C2   1.403       .  A
C1            C6   1.398       .  A
C1          C263   1.444       .  S
C2            C3   1.416       .  A
C2            H7   1.081       .  S
C3            C4   1.415       .  A
C3           C12   1.507       .  S
C4            C5   1.402       .  A
C4            H8   1.081       .  S
C5            C6   1.398       .  A
C5          C249   1.443       .  S
C6            H9   1.085       .  S
C10          C11   1.402       .  A
C10          C15   1.398       .  A
C10         C237   1.443       .  S
C11          C12   1.415       .  A
C11          H16   1.081       .  S
C12          C13   1.415       .  A
C13          C14   1.402       .  A
C13          H17   1.081       .  S
C14          C15   1.397       .  A
C14         C223   1.443       .  S
C15         H287   1.085   1_554  S
H18         C284   1.085       .  S
C19          C20   1.404       .  A
C19          C24   1.397       .  A
C19         C193   1.444       .  S
C20          C21   1.417       .  A
C20          H25   1.080       .  S
C21          C22   1.415       .  A
C21          C30   1.510       .  S
C22          C23   1.400       .  A
C22          H26   1.080       .  S
C23          C24   1.396       .  A
C23         C209   1.441       .  S
C24          H27   1.085       .  S
C28          C29   1.403       .  A
C28          C33   1.398       .  A
C28         C167   1.443       .  S
C29          C30   1.416       .  A
C29          H34   1.080       .  S
C30          C31   1.416       .  A
C31          C32   1.400       .  A
C31          H35   1.080       .  S
C32          C33   1.397       .  A
C32         C181   1.444       .  S
C33         H305   1.085   1_554  S
H36         C302   1.085       .  S
C37          C38   1.403       .  A
C37          C42   1.398       .  A
C37         C153   1.444       .  S
C38          C39   1.415       .  A
C38          H43   1.081       .  S
C39          C40   1.416       .  A
C39          C50   1.508       .  S
C40          C41   1.402       .  A
C40          H44   1.081       .  S
C41          C42   1.397       .  A
C41         C137   1.444       .  S
C42          H45   1.085       .  S
C46          C47   1.398       .  A
C46          C51   1.404       .  A
C46         C123   1.445       .  S
C47          C48   1.397       .  A
C47         H321   1.085   1_554  S
C48          C49   1.401       .  A
C48         C111   1.443       .  S
C49          C50   1.415       .  A
C49          H53   1.081       .  S
C50          C51   1.416       .  A
C51          H54   1.081       .  S
H52         C316   1.085       .  S
O55          C82   1.271   1_545  A
O55         Mn81   2.095       .  S
C56         C235   1.438       .  S
C56          O89   1.271       .  A
C56          O86   1.271       .  A
O57         Mn64   2.159       .  S
O57         Mn75   2.137       .  S
O57         Mn79   2.159       .  S
O57         Mn81   2.138   1_565  S
O58          C68   1.272       .  A
O58         Mn92   2.102       .  S
O59          C82   1.272       .  A
O59         Mn75   2.101       .  S
O60          C87   1.250       .  A
O60         Mn79   2.093       .  S
O61         Mn92   1.967   1_655  S
O61         Mn81   1.972       .  S
O61          C77   1.219       .  S
C62         C207   1.435       .  S
C62          O65   1.250       .  A
C62          O88   1.219       .  S
O63         Mn83   2.138   1_655  S
O63         Mn64   2.161       .  S
O63         Mn97   2.138       .  S
O63         Mn79   2.161       .  S
Mn64         O93   2.089   1_655  S
Mn64         O69   2.095       .  S
Mn64         O96   2.093   1_565  S
Mn64         O70   2.161   1_665  S
O65         Mn79   2.092   1_455  S
O66          C68   1.271       .  A
O66         Mn73   2.095       .  S
C67         C179   1.438       .  S
C67          O93   1.250       .  A
C67          O80   1.221       .  S
C68         C265   1.440       .  S
O69          C94   1.250       .  A
O70         Mn73   2.139       .  S
O70         Mn92   2.137       .  S
O70         Mn79   2.162   1_445  S
O71         Mn75   1.972       .  S
O71         Mn97   1.965       .  S
O71          C94   1.219       .  S
C72         C151   1.439       .  S
C72          O98   1.272   1_655  A
C72          O74   1.271       .  A
Mn73         O86   2.097       .  S
Mn73         O88   1.967   1_545  S
Mn73         O80   1.968   1_545  S
O74         Mn97   2.095       .  S
Mn75         O91   2.091       .  S
Mn75         O85   1.966       .  S
O76          C78   1.271   1_545  A
O76         Mn81   2.099       .  S
C77         C139   1.437       .  S
C77          O95   1.250       .  A
C78         C165   1.436       .  S
C78          O91   1.270       .  A
Mn79         O95   2.094   1_565  S
O80         Mn83   1.974       .  S
Mn81         O99   1.965       .  S
C82         C195   1.439       .  S
Mn83         O90   2.094       .  S
Mn83         O98   2.101       .  S
Mn83         O88   1.966       .  S
C84         C125   1.440       .  S
C84          O90   1.270   1_655  A
C84         O100   1.272       .  A
O85         Mn97   1.974       .  S
O85          C87   1.220       .  S
C87         C251   1.437       .  S
O89         Mn92   2.095       .  S
Mn92         O99   1.973   1_455  S
C94         C221   1.437       .  S
O96         C101   1.250       .  A
Mn97        O100   2.104       .  S
O99         C101   1.219       .  S
C101        C109   1.437       .  S
C102        C103   1.402       .  A
C102        C107   1.402   1_655  A
C102        C110   1.442       .  S
C103        C104   1.401       .  A
C103        H112   1.083       .  S
C104        C105   1.403       .  A
C104        H113   1.084       .  S
C105        C106   1.401   1_655  A
C105        C108   1.442       .  S
C106        C107   1.399       .  A
C106        H114   1.084       .  S
C107        H115   1.084       .  S
C108        C109   1.207       .  T
C110        C380   1.208       .  T
C111        C379   1.208   1_554  T
C116        C117   1.402       .  A
C116        C121   1.403   1_655  A
C116        C124   1.445       .  S
C117        C118   1.400       .  A
C117        H126   1.083       .  S
C118        C119   1.402       .  A
C118        H396   1.083       .  S
C119        C120   1.403   1_655  A
C119        C122   1.445       .  S
C120        C121   1.402       .  A
C120        H128   1.083       .  S
C121        H129   1.083       .  S
C122        C392   1.209       .  T
C123        C391   1.209   1_554  T
C124        C125   1.209       .  T
H127        C387   1.083       .  S
C130        C131   1.401       .  A
C130        C135   1.403   1_655  A
C130        C138   1.442       .  S
C131        C132   1.399       .  A
C131        H140   1.084       .  S
C132        C133   1.402       .  A
C132        H141   1.083       .  S
C133        C134   1.403   1_655  A
C133        C136   1.443       .  S
C134        C135   1.402       .  A
C134        H142   1.083       .  S
C135        H143   1.084       .  S
C136        C137   1.208       .  T
C138        C139   1.207       .  T
C144        C145   1.403   1_655  A
C144        C149   1.402       .  A
C144        C152   1.444       .  S
C145        C146   1.401       .  A
C145        H154   1.083       .  S
C146        C147   1.402   1_455  A
C146        H155   1.083       .  S
C147        C148   1.402       .  A
C147        C150   1.444       .  S
C148        C149   1.400       .  A
C148        H156   1.083       .  S
C149        H157   1.083       .  S
C150        C151   1.208       .  T
C152        C153   1.208       .  T
C158        C159   1.402   1_565  A
C158        C163   1.401       .  A
C158        C166   1.442       .  S
C159        C160   1.400       .  A
C159        H437   1.083       .  S
C160        C161   1.402   1_545  A
C160        H169   1.084       .  S
C161        C162   1.402       .  A
C161        C164   1.441       .  S
C162        C163   1.399       .  A
C162        H170   1.084       .  S
C163        H171   1.083       .  S
C164        C165   1.207       .  T
C166        C436   1.207       .  T
C167        C435   1.207   1_554  T
H168        C428   1.083       .  S
C172        C173   1.402   1_565  A
C172        C177   1.402       .  A
C172        C180   1.443       .  S
C173        C174   1.400       .  A
C173        H451   1.083       .  S
C174        C175   1.402   1_545  A
C174        H183   1.084       .  S
C175        C176   1.402       .  A
C175        C178   1.443       .  S
C176        C177   1.400       .  A
C176        H184   1.084       .  S
C177        H185   1.083       .  S
C178        C179   1.208       .  T
C180        C450   1.208       .  T
C181        C449   1.208   1_554  T
H182        C442   1.083       .  S
C186        C187   1.402   1_565  A
C186        C191   1.402       .  A
C186        C194   1.444       .  S
C187        C188   1.400       .  A
C187        H196   1.083       .  S
C188        C189   1.402   1_545  A
C188        H197   1.083       .  S
C189        C190   1.402       .  A
C189        C192   1.444       .  S
C190        C191   1.401       .  A
C190        H198   1.083       .  S
C191        H199   1.084       .  S
C192        C193   1.208       .  T
C194        C195   1.208       .  T
C200        C201   1.402       .  A
C200        C205   1.401       .  A
C200        C208   1.441       .  S
C201        C202   1.400       .  A
C201        H210   1.083   1_565  S
C202        C203   1.401       .  A
C202        H211   1.083   1_565  S
C203        C204   1.401       .  A
C203        C206   1.440       .  S
C204        C205   1.398       .  A
C204        H212   1.084       .  S
C205        H213   1.083       .  S
C206        C207   1.206       .  T
C208        C209   1.207       .  T
C214        C215   1.402       .  A
C214        C219   1.402       .  A
C214        C222   1.443       .  S
C215        C216   1.402       .  A
C215        H224   1.083       .  S
C216        C217   1.403       .  A
C216        H225   1.084       .  S
C217        C218   1.401       .  A
C217        C220   1.442       .  S
C218        C219   1.399       .  A
C218        H226   1.084       .  S
C219        H227   1.084       .  S
C220        C221   1.207       .  T
C222        C492   1.208       .  T
C223        C491   1.208   1_554  T
C228        C229   1.402       .  A
C228        C233   1.402       .  A
C228        C236   1.443       .  S
C229        C230   1.400       .  A
C229        H507   1.083       .  S
C230        C231   1.402       .  A
C230        H239   1.084       .  S
C231        C232   1.402       .  A
C231        C234   1.443       .  S
C232        C233   1.400       .  A
C232        H240   1.084       .  S
C233        H241   1.083       .  S
C234        C235   1.208       .  T
C236        C506   1.208       .  T
C237        C505   1.208   1_554  T
H238        C498   1.083       .  S
C242        C243   1.401       .  A
C242        C247   1.403       .  A
C242        C250   1.442       .  S
C243        C244   1.398       .  A
C243        H252   1.084       .  S
C244        C245   1.401       .  A
C244        H253   1.084       .  S
C245        C246   1.403       .  A
C245        C248   1.443       .  S
C246        C247   1.402       .  A
C246        H254   1.083       .  S
C247        H255   1.084       .  S
C248        C249   1.208       .  T
C250        C251   1.207       .  T
C256        C257   1.402       .  A
C256        C261   1.403       .  A
C256        C264   1.445       .  S
C257        C258   1.401       .  A
C257        H266   1.083       .  S
C258        C259   1.403       .  A
C258        H267   1.083       .  S
C259        C260   1.402       .  A
C259        C262   1.444       .  S
C260        C261   1.400       .  A
C260        H268   1.083       .  S
C261        H269   1.083       .  S
C262        C263   1.209       .  T
C264        C265   1.209       .  T
C270        C271   1.403       .  A
C270        C275   1.398       .  A
C270        C532   1.444       .  S
C271        C272   1.415       .  A
C271        H276   1.081       .  S
C272        C273   1.415       .  A
C272        C281   1.507       .  S
C273        C274   1.402       .  A
C273        H277   1.081       .  S
C274        C275   1.398       .  A
C274        C518   1.443       .  S
C275        H278   1.085       .  S
C279        C280   1.402       .  A
C279        C284   1.398       .  A
C279        C506   1.443       .  S
C280        C281   1.415       .  A
C280        H285   1.081       .  S
C281        C282   1.415       .  A
C282        C283   1.402       .  A
C282        H286   1.081       .  S
C283        C284   1.397       .  A
C283        C492   1.443       .  S
C288        C289   1.404       .  A
C288        C293   1.397       .  A
C288        C462   1.444       .  S
C289        C290   1.417       .  A
C289        H294   1.080       .  S
C290        C291   1.415       .  A
C290        C299   1.510       .  S
C291        C292   1.399       .  A
C291        H295   1.080       .  S
C292        C293   1.396       .  A
C292        C478   1.441       .  S
C293        H296   1.085       .  S
C297        C298   1.403       .  A
C297        C302   1.398       .  A
C297        C436   1.443       .  S
C298        C299   1.416       .  A
C298        H303   1.080       .  S
C299        C300   1.416       .  A
C300        C301   1.400       .  A
C300        H304   1.080       .  S
C301        C302   1.397       .  A
C301        C450   1.444       .  S
C306        C307   1.403       .  A
C306        C311   1.398       .  A
C306        C422   1.444       .  S
C307        C308   1.415       .  A
C307        H312   1.081       .  S
C308        C309   1.416       .  A
C308        C319   1.508       .  S
C309        C310   1.402       .  A
C309        H313   1.081       .  S
C310        C311   1.397       .  A
C310        C406   1.444       .  S
C311        H314   1.085       .  S
C315        C316   1.398       .  A
C315        C320   1.404       .  A
C315        C392   1.445       .  S
C316        C317   1.397       .  A
C317        C318   1.401       .  A
C317        C380   1.443       .  S
C318        C319   1.415       .  A
C318        H322   1.081       .  S
C319        C320   1.416       .  A
C320        H323   1.081       .  S
O324        C351   1.271   1_545  A
O324       Mn350   2.095       .  S
C325        C504   1.437       .  S
C325        O358   1.271       .  A
C325        O355   1.271       .  A
O326       Mn333   2.160       .  S
O326       Mn344   2.137       .  S
O326       Mn348   2.159       .  S
O326       Mn350   2.138   1_565  S
O327        C337   1.272       .  A
O327       Mn361   2.102       .  S
O328        C351   1.272       .  A
O328       Mn344   2.101       .  S
O329        C356   1.250       .  A
O329       Mn348   2.093       .  S
O330       Mn361   1.967   1_655  S
O330       Mn350   1.972       .  S
O330        C346   1.219       .  S
C331        C476   1.435       .  S
C331        O334   1.250       .  A
C331        O357   1.219       .  S
O332       Mn352   2.138   1_655  S
O332       Mn333   2.161       .  S
O332       Mn366   2.138       .  S
O332       Mn348   2.161       .  S
Mn333       O362   2.090   1_655  S
Mn333       O338   2.095       .  S
Mn333       O365   2.093   1_565  S
Mn333       O339   2.161   1_665  S
O334       Mn348   2.091   1_455  S
O335        C337   1.271       .  A
O335       Mn342   2.096       .  S
C336        C448   1.438       .  S
C336        O362   1.250       .  A
C336        O349   1.221       .  S
C337        C534   1.440       .  S
O338        C363   1.250       .  A
O339       Mn342   2.139       .  S
O339       Mn361   2.137       .  S
O339       Mn348   2.162   1_445  S
O340       Mn344   1.972       .  S
O340       Mn366   1.965       .  S
O340        C363   1.219       .  S
C341        C420   1.439       .  S
C341        O367   1.272   1_655  A
C341        O343   1.271       .  A
Mn342       O355   2.097       .  S
Mn342       O357   1.967   1_545  S
Mn342       O349   1.968   1_545  S
O343       Mn366   2.095       .  S
Mn344       O360   2.091       .  S
Mn344       O354   1.966       .  S
O345        C347   1.271   1_545  A
O345       Mn350   2.099       .  S
C346        C408   1.437       .  S
C346        O364   1.250       .  A
C347        C434   1.436       .  S
C347        O360   1.270       .  A
Mn348       O364   2.094   1_565  S
O349       Mn352   1.974       .  S
Mn350       O368   1.965       .  S
C351        C464   1.439       .  S
Mn352       O359   2.094       .  S
Mn352       O367   2.101       .  S
Mn352       O357   1.966       .  S
C353        C394   1.440       .  S
C353        O359   1.270   1_655  A
C353        O369   1.272       .  A
O354       Mn366   1.974       .  S
O354        C356   1.220       .  S
C356        C520   1.437       .  S
O358       Mn361   2.095       .  S
Mn361       O368   1.973   1_455  S
C363        C490   1.437       .  S
O365        C370   1.250       .  A
Mn366       O369   2.103       .  S
O368        C370   1.219       .  S
C370        C378   1.437       .  S
C371        C372   1.402       .  A
C371        C376   1.402   1_655  A
C371        C379   1.442       .  S
C372        C373   1.401       .  A
C372        H381   1.083       .  S
C373        C374   1.403       .  A
C373        H382   1.084       .  S
C374        C375   1.401   1_655  A
C374        C377   1.442       .  S
C375        C376   1.399       .  A
C375        H383   1.084       .  S
C376        H384   1.084       .  S
C377        C378   1.207       .  T
C385        C386   1.402       .  A
C385        C390   1.403   1_655  A
C385        C393   1.445       .  S
C386        C387   1.400       .  A
C386        H395   1.083       .  S
C387        C388   1.402       .  A
C388        C389   1.402   1_655  A
C388        C391   1.445       .  S
C389        C390   1.402       .  A
C389        H397   1.083       .  S
C390        H398   1.083       .  S
C393        C394   1.209       .  T
C399        C400   1.401       .  A
C399        C404   1.403   1_655  A
C399        C407   1.443       .  S
C400        C401   1.399       .  A
C400        H409   1.084       .  S
C401        C402   1.402       .  A
C401        H410   1.083       .  S
C402        C403   1.403   1_655  A
C402        C405   1.443       .  S
C403        C404   1.402       .  A
C403        H411   1.083       .  S
C404        H412   1.084       .  S
C405        C406   1.208       .  T
C407        C408   1.207       .  T
C413        C414   1.403   1_655  A
C413        C418   1.402       .  A
C413        C421   1.444       .  S
C414        C415   1.401       .  A
C414        H423   1.083       .  S
C415        C416   1.402   1_455  A
C415        H424   1.083       .  S
C416        C417   1.402       .  A
C416        C419   1.444       .  S
C417        C418   1.400       .  A
C417        H425   1.083       .  S
C418        H426   1.083       .  S
C419        C420   1.208       .  T
C421        C422   1.208       .  T
C427        C428   1.402   1_565  A
C427        C432   1.401       .  A
C427        C435   1.442       .  S
C428        C429   1.400       .  A
C429        C430   1.402   1_545  A
C429        H438   1.084       .  S
C430        C431   1.402       .  A
C430        C433   1.441       .  S
C431        C432   1.399       .  A
C431        H439   1.084       .  S
C432        H440   1.083       .  S
C433        C434   1.207       .  T
C441        C442   1.402   1_565  A
C441        C446   1.402       .  A
C441        C449   1.443       .  S
C442        C443   1.400       .  A
C443        C444   1.402   1_545  A
C443        H452   1.084       .  S
C444        C445   1.402       .  A
C444        C447   1.443       .  S
C445        C446   1.400       .  A
C445        H453   1.084       .  S
C446        H454   1.083       .  S
C447        C448   1.208       .  T
C455        C456   1.402   1_565  A
C455        C460   1.402       .  A
C455        C463   1.444       .  S
C456        C457   1.401       .  A
C456        H465   1.083       .  S
C457        C458   1.402   1_545  A
C457        H466   1.083       .  S
C458        C459   1.402       .  A
C458        C461   1.444       .  S
C459        C460   1.401       .  A
C459        H467   1.083       .  S
C460        H468   1.084       .  S
C461        C462   1.208       .  T
C463        C464   1.208       .  T
C469        C470   1.402       .  A
C469        C474   1.401       .  A
C469        C477   1.441       .  S
C470        C471   1.400       .  A
C470        H479   1.083   1_565  S
C471        C472   1.401       .  A
C471        H480   1.083   1_565  S
C472        C473   1.401       .  A
C472        C475   1.440       .  S
C473        C474   1.398       .  A
C473        H481   1.084       .  S
C474        H482   1.083       .  S
C475        C476   1.206       .  T
C477        C478   1.207       .  T
C483        C484   1.402       .  A
C483        C488   1.402       .  A
C483        C491   1.443       .  S
C484        C485   1.402       .  A
C484        H493   1.083       .  S
C485        C486   1.403       .  A
C485        H494   1.084       .  S
C486        C487   1.401       .  A
C486        C489   1.443       .  S
C487        C488   1.399       .  A
C487        H495   1.084       .  S
C488        H496   1.084       .  S
C489        C490   1.207       .  T
C497        C498   1.402       .  A
C497        C502   1.401       .  A
C497        C505   1.443       .  S
C498        C499   1.400       .  A
C499        C500   1.402       .  A
C499        H508   1.084       .  S
C500        C501   1.402       .  A
C500        C503   1.442       .  S
C501        C502   1.400       .  A
C501        H509   1.084       .  S
C502        H510   1.083       .  S
C503        C504   1.207       .  T
C511        C512   1.401       .  A
C511        C516   1.403       .  A
C511        C519   1.442       .  S
C512        C513   1.398       .  A
C512        H521   1.084       .  S
C513        C514   1.401       .  A
C513        H522   1.084       .  S
C514        C515   1.403       .  A
C514        C517   1.443       .  S
C515        C516   1.402       .  A
C515        H523   1.083       .  S
C516        H524   1.084       .  S
C517        C518   1.208       .  T
C519        C520   1.207       .  T
C525        C526   1.402       .  A
C525        C530   1.403       .  A
C525        C533   1.445       .  S
C526        C527   1.401       .  A
C526        H535   1.083       .  S
C527        C528   1.403       .  A
C527        H536   1.083       .  S
C528        C529   1.402       .  A
C528        C531   1.444       .  S
C529        C530   1.400       .  A
C529        H537   1.083       .  S
C530        H538   1.083       .  S
C531        C532   1.209       .  T
C533        C534   1.209       .  T
