geometry optimzed in LAMMPS
_audit_creation_date              2020-11-30 
_audit_creation_method            'lammps2cif' 
_symmetry_space_group_name_H-M    'P1' 
_symmetry_Int_Tables_number       1 
_symmetry_cell_setting            triclinic 
loop_ 
_symmetry_equiv_pos_as_xyz 
  x,y,z 
_cell_length_a                    51.52522465 
_cell_length_b                    51.413143090115355 
_cell_length_c                    30.55256659766774 
_cell_angle_alpha                 89.98040676503733 
_cell_angle_beta                  89.93946609117367 
_cell_angle_gamma                 120.06953557714242 
loop_ 
_atom_site_label 
_atom_site_type_symbol 
_atom_site_fract_x 
_atom_site_fract_y 
_atom_site_fract_z 
_atom_site_charge 
C1          C  0.22551265  0.21336776  0.28703977     0.80500
N2          N  0.24785320  0.23674529  0.30927263    -0.77800
C3          C  0.27000965  0.26080762  0.28808885     0.83000
N4          N  0.26996439  0.26135617  0.24370455    -0.77700
C5          C  0.24776293  0.23835080  0.22073444     0.83100
N6          N  0.22564387  0.21438459  0.24256866    -0.79400
C7          C  0.21963492  0.22362927  0.82306124     0.80500
N8          N  0.22010539  0.22238027  0.86740803    -0.77800
C9          C  0.24253402  0.24476282  0.89088247     0.83000
N10         N  0.26495745  0.26864380  0.86947702    -0.77700
C11         C  0.26457874  0.27054476  0.82519212     0.83100
N12         N  0.24195794  0.24794931  0.80222017    -0.79400
C13         C  0.24977397  0.48159166  0.28533894     0.80500
N14         N  0.22506847  0.47905719  0.30552331    -0.77800
C15         C  0.20249426  0.47896598  0.28237725     0.83000
N16         N  0.20477106  0.48122860  0.23808087    -0.77700
C17         C  0.22944494  0.48415930  0.21727930     0.83100
N18         N  0.25176542  0.48426750  0.24107177    -0.79400
C19         C  0.24366644  0.47304978  0.81928416     0.80500
N20         N  0.24743500  0.47737253  0.86325683    -0.77800
C21         C  0.22758381  0.48147015  0.88753083     0.83000
N22         N  0.20365548  0.48067472  0.86749015    -0.77700
C23         C  0.19962865  0.47602120  0.82376721     0.83100
N24         N  0.21977032  0.47247203  0.79980611    -0.79400
C25         C  0.48690988  0.23718076  0.28621782     0.80500
N26         N  0.48830644  0.23751090  0.24194302    -0.77800
C27         C  0.48767308  0.21440857  0.21963450     0.83000
N28         N  0.48540007  0.19050068  0.24204982    -0.77700
C29         C  0.48418068  0.18995803  0.28648163     0.83100
N30         N  0.48516160  0.21343216  0.30826343    -0.79400
C31         C  0.49941335  0.24112086  0.82167947     0.80500
N32         N  0.49868022  0.21711853  0.80179616    -0.77800
C33         C  0.49590724  0.19341322  0.82517966     0.83000
N34         N  0.49402395  0.19392847  0.86934598    -0.77700
C35         C  0.49440622  0.21748996  0.89002149     0.83100
N36         N  0.49708689  0.24103500  0.86604539    -0.79400
O37         O  0.41480667  0.99537734  0.51106602    -0.87900
C38         C  0.06948944  0.06449607  0.62081668     1.12200
O39         O  0.45374007  0.47313343  0.55534179    -1.35700
O40         O  0.04697726  0.06851614  0.50729529    -0.89400
O41         O  0.39458569  0.44587041  0.50330301    -0.90000
O42         O  0.45658176  0.44525924  0.46133937    -0.78800
O43         O  0.48108148  0.03238584  0.51738722    -1.00900
C44         C  0.04301711  0.48110823  0.47377373     1.22200
O45         O  0.48823895  0.44540406  0.55318913    -1.35800
Mn46       Mn  0.48589754  0.47444163  0.60206196     1.82100
O47         O  0.01887166  0.47939838  0.46198830    -0.77900
O48         O  0.07520608  0.04684963  0.50790389    -0.87300
C49         C  0.04141688  0.47681271  0.63392374     1.13300
C50         C  0.06840041  0.06558652  0.49243722     1.08000
O51         O  0.45540351  0.44181418  0.64538998    -0.78900
O52         O  0.01607911  0.00777146  0.55577856    -1.32600
O53         O  0.42855269  0.41374590  0.59384662    -0.98100
C54         C  0.49268241  0.39384832  0.48687215     1.06700
Mn55       Mn  0.05955875  0.01323400  0.55552133     1.48600
O56         O  0.46720924  0.38686222  0.50284419    -0.87300
Mn57       Mn  0.41263966  0.43148051  0.55258096     1.49600
O58         O  0.41594497  0.99285955  0.60936494    -0.91100
C59         C  0.48137967  0.02895529  0.47798544     1.19900
C60         C  0.39512268  0.46660014  0.61947430     1.12000
Mn61       Mn  0.48632834  0.47646277  0.50728382     1.81000
O62         O  0.04635748  0.47872850  0.59483527    -0.96300
Mn63       Mn  0.44815479  0.01113071  0.55920469     1.49300
C64         C  0.39681674  0.47075787  0.49236856     1.08500
Mn65       Mn  0.02984636  0.44609843  0.55238688     1.49900
C66         C  0.49202872  0.39062190  0.61421813     1.11400
O67         O  0.43011245  0.41544687  0.51162207    -1.02100
O68         O  0.07507985  0.04478743  0.60588917    -0.91800
C69         C  0.43443855  0.42073124  0.47263755     1.22700
O70         O  0.04726992  0.48078140  0.51290551    -1.02500
O71         O  0.04860719  0.06821879  0.60555472    -0.89900
O72         O  0.01658486  0.41215713  0.59963142    -0.89500
O73         O  0.39132711  0.44292970  0.60066300    -0.89500
Mn74       Mn  0.01536652  0.04878415  0.55737821     1.47900
O75         O  0.01750348  0.47523642  0.64627175    -0.78000
C76         C  0.43242363  0.41833385  0.63308945     1.15700
O77         O  0.48418143  0.00742860  0.46460849    -0.76700
O78         O  0.48459181  0.00374308  0.64858468    -0.76300
Mn79       Mn  0.44997662  0.40181517  0.55235181     1.51100
O80         O  0.01702056  0.41507983  0.50191979    -0.88700
O81         O  0.48222593  0.03138188  0.59936158    -0.96200
O82         O  0.46649364  0.38517811  0.60055120    -0.91200
C83         C  0.48351232  0.02668566  0.63809921     1.13500
C84         C  0.00645115  0.14904298  0.73521870    -0.01700
C85         C  0.49236637  0.11973761  0.75269877     0.06900
C86         C  0.48120664  0.11479819  0.79554662    -0.07700
C87         C  0.48260115  0.13837535  0.82045141     0.04300
C88         C  0.49534882  0.16763576  0.80211567    -0.14900
C89         C  0.00760225  0.17251448  0.75970135    -0.08200
C90         C  0.48798993  0.09391351  0.72576566     0.05300
C91         C  0.50360976  0.07889347  0.73620384    -0.09400
C92         C  0.50182696  0.05608394  0.70899459     0.00300
C93         C  0.48421907  0.04825591  0.67059619     0.00100
C94         C  0.46782857  0.06265340  0.66125766    -0.12900
C95         C  0.46931674  0.08505055  0.68860000     0.00600
C96         C  0.51941827  0.04228165  0.72002794     0.39900
C97         C  0.45162956  0.09878879  0.67764874     0.36500
C98         C  0.01980433  0.15550611  0.69210443     0.36300
C99         C  0.46979551  0.13136036  0.86388481     0.37000
N100        N  0.53362392  0.03134202  0.72894583    -0.43800
N101        N  0.43751284  0.10982941  0.66875810    -0.44200
N102        N  0.45959081  0.12558051  0.89872562    -0.41600
N103        N  0.03047823  0.16058692  0.65756194    -0.43000
H104        H  0.01812689  0.19480335  0.74535210     0.13100
H105        H  0.47064085  0.09226827  0.80910460     0.09600
H106        H  0.51791846  0.08565700  0.76487714     0.10700
H107        H  0.45385356  0.05645745  0.63224943     0.16500
C108        C  0.52039821  0.36307910  0.70795348    -0.01700
C109        C  0.49893519  0.33212607  0.70904071     0.06900
C110        C  0.47431348  0.32094406  0.68061094    -0.07700
C111        C  0.47147206  0.33953488  0.64996451     0.04300
C112        C  0.49331422  0.37045565  0.64792373    -0.14900
C113        C  0.51751496  0.38190654  0.67745972    -0.08200
C114        C  0.50196282  0.31046989  0.73800926     0.05300
C115        C  0.00330119  0.31423583  0.78350586    -0.09400
C116        C  0.00407278  0.29300790  0.81159890     0.00300
C117        C  0.50188305  0.26639586  0.79421033     0.00100
C118        C  0.50161672  0.26340803  0.74832804    -0.12900
C119        C  0.50217334  0.28521896  0.72046215     0.00600
C120        C  0.00838385  0.30012108  0.85764431     0.39900
C121        C  0.50354618  0.28140716  0.67380906     0.36500
C122        C  0.54589767  0.37581132  0.73697989     0.36300
C123        C  0.44693833  0.32562673  0.61924921     0.37000
N124        N  0.01241934  0.30644747  0.89434739    -0.43800
N125        N  0.50478280  0.27842009  0.63646327    -0.44200
N126        N  0.42737452  0.31431335  0.59452887    -0.41600
N127        N  0.56605368  0.38574904  0.76077877    -0.43000
H128        H  0.53437654  0.40557056  0.67649942     0.13100
H129        H  0.45757147  0.29722972  0.68157014     0.09600
H130        H  0.00367692  0.33386929  0.79724593     0.10700
H131        H  0.50092575  0.24386970  0.73368633     0.16500
C132        C  0.99388070  0.07668404  0.37700562    -0.01700
C133        C  0.48201574  0.09489765  0.39036574     0.06900
C134        C  0.46876280  0.09048995  0.43172311    -0.07700
C135        C  0.46797513  0.06902103  0.46050650     0.04300
C136        C  0.48004130  0.05073759  0.44753699    -0.14900
C137        C  0.99255467  0.05461782  0.40541046    -0.08200
C138        C  0.48387685  0.11938828  0.36251976     0.05300
C139        C  0.46725470  0.11221616  0.32362306    -0.09400
C140        C  0.46693573  0.13474661  0.29815593     0.00300
C141        C  0.48370669  0.16509428  0.31153844     0.00100
C142        C  0.00040943  0.17212965  0.35034746    -0.12900
C143        C  0.00065379  0.14967650  0.37577327     0.00600
C144        C  0.44779256  0.12589704  0.26011449     0.39900
C145        C  0.01831137  0.15827696  0.41537170     0.36500
C146        C  0.00869307  0.08119879  0.33526263     0.36300
C147        C  0.45456071  0.06648661  0.50300623     0.37000
N148        N  0.43224765  0.11871135  0.22983225    -0.43800
N149        N  0.03235701  0.16520651  0.44718731    -0.44200
N150        N  0.44385390  0.06469131  0.53700692    -0.41600
N151        N  0.02068091  0.08494222  0.30186530    -0.43000
H152        H  0.00224711  0.04111261  0.39519407     0.13100
H153        H  0.45942601  0.10434885  0.44183360     0.09600
H154        H  0.45386293  0.08887496  0.31382121     0.10700
H155        H  0.01349631  0.19535349  0.36084800     0.16500
C156        C  0.46568521  0.33357374  0.40001363    -0.01700
C157        C  0.49254321  0.33498282  0.38692160     0.06900
C158        C  0.01987533  0.35792843  0.40281352    -0.07700
C159        C  0.02085313  0.37834088  0.43387071     0.04300
C160        C  0.49375400  0.37575464  0.44969105    -0.14900
C161        C  0.46648805  0.35385208  0.43105457    -0.08200
C162        C  0.49225417  0.31081084  0.36050737     0.05300
C163        C  0.98279384  0.30705282  0.31690988    -0.09400
C164        C  0.98076202  0.28332925  0.29184357     0.00300
C165        C  0.48856267  0.26290880  0.31065588     0.00100
C166        C  0.49833094  0.26713668  0.35438461    -0.12900
C167        C  0.50018275  0.29074271  0.37928073     0.00600
C168        C  0.96965359  0.28017817  0.24766017     0.39900
C169        C  0.50945977  0.29342413  0.42446641     0.36500
C170        C  0.43690518  0.31051391  0.38392556     0.36300
C171        C  0.04996548  0.40054507  0.45005019     0.37000
N172        N  0.96070354  0.27779136  0.21229523    -0.43800
N173        N  0.51688674  0.29564292  0.46065814    -0.44200
N174        N  0.07325000  0.41833023  0.46317808    -0.41600
N175        N  0.41382216  0.29211401  0.37100082    -0.43000
H176        H  0.44545742  0.35170383  0.44181855     0.13100
H177        H  0.04054828  0.35911103  0.39217117     0.09600
H178        H  0.97667733  0.32256090  0.30262159     0.10700
H179        H  0.50459518  0.25195438  0.36939229     0.16500
C180        C  0.47342928  0.18815268  0.10217525    -0.01700
C181        C  0.49077630  0.21521913  0.07907037     0.06900
C182        C  0.00699572  0.24213843  0.10215910    -0.07700
C183        C  0.00647238  0.24247112  0.14790734     0.04300
C184        C  0.48941796  0.21530708  0.17129627    -0.14900
C185        C  0.47312472  0.18834119  0.14793532    -0.08200
C186        C  0.49208520  0.21598952  0.03072348     0.05300
C187        C  0.47842707  0.22956738  0.00786104    -0.09400
C188        C  0.47874935  0.23038307  0.96204339     0.00300
C189        C  0.49332128  0.21767968  0.93844406     0.00100
C190        C  0.50711686  0.20425189  0.96166923    -0.12900
C191        C  0.50675078  0.20346686  0.00737300     0.00600
C192        C  0.46257473  0.24290458  0.94044717     0.39900
C193        C  0.02211014  0.19034028  0.02964353     0.36500
C194        C  0.45502956  0.16013360  0.07956728     0.36300
C195        C  0.02448652  0.27092267  0.16973896     0.37000
N196        N  0.44938547  0.25285846  0.92354667    -0.43800
N197        N  0.03449914  0.17985627  0.04744651    -0.44200
N198        N  0.03887829  0.29375353  0.18715133    -0.41600
N199        N  0.44019325  0.13771373  0.06141227    -0.43000
H200        H  0.45954368  0.16743425  0.16541915     0.13100
H201        H  0.02035680  0.26295074  0.08430084     0.09600
H202        H  0.46701781  0.23907385  0.02593825     0.10700
H203        H  0.01858483  0.19465240  0.94409164     0.16500
C204        C  0.29438445  0.48230544  0.72420088    -0.01700
C205        C  0.30683338  0.46456212  0.73717899     0.06900
C206        C  0.29853752  0.44952690  0.77752415    -0.07700
C207        C  0.27788983  0.45181679  0.80485753     0.04300
C208        C  0.26563554  0.46982794  0.79206823    -0.14900
C209        C  0.27392400  0.48472041  0.75153768    -0.08200
C210        C  0.32883613  0.46188730  0.70910010     0.05300
C211        C  0.35898388  0.47628827  0.72195091    -0.09400
C212        C  0.38092850  0.47684644  0.69422634     0.00300
C213        C  0.37278621  0.46335560  0.65254210     0.00100
C214        C  0.34233456  0.44727667  0.64098141    -0.12900
C215        C  0.32035743  0.44628846  0.66899138     0.00600
C216        C  0.41107204  0.48951486  0.71059274     0.39900
C217        C  0.28925078  0.92910270  0.65601287     0.36500
C218        C  0.30261187  0.99853081  0.68325885     0.36300
C219        C  0.26835310  0.43412338  0.84446365     0.37000
N220        N  0.43480506  0.49891656  0.72519122    -0.43800
N221        N  0.26432152  0.91528009  0.64576737    -0.44200
N222        N  0.26047952  0.41971312  0.87599703    -0.41600
N223        N  0.30921556  0.01152593  0.65042680    -0.43000
H224        H  0.26456903  0.99849368  0.74134589     0.13100
H225        H  0.30786039  0.43561018  0.78728918     0.09600
H226        H  0.36539786  0.48739729  0.75350975     0.10700
H227        H  0.33575565  0.93608443  0.60942825     0.16500
C228        C  0.14461058  0.49845787  0.78276541    -0.01700
C229        C  0.12619499  0.47401795  0.75523080     0.06900
C230        C  0.13141963  0.44980642  0.75195484    -0.07700
C231        C  0.15479066  0.44977714  0.77486654     0.04300
C232        C  0.17327506  0.47420631  0.80220466    -0.14900
C233        C  0.16760033  0.49806676  0.80671597    -0.08200
C234        C  0.10376439  0.47451470  0.72543863     0.05300
C235        C  0.10737981  0.47214123  0.68050626    -0.09400
C236        C  0.08704795  0.47198562  0.65038083     0.00300
C237        C  0.06275233  0.47537268  0.66501296     0.00100
C238        C  0.05874651  0.47703506  0.71025926    -0.12900
C239        C  0.07878248  0.47623913  0.74048357     0.00600
C240        C  0.09150603  0.46725742  0.60500209     0.39900
C241        C  0.07265652  0.97613164  0.78659107     0.36500
C242        C  0.14190661  0.02505287  0.78428375     0.36300
C243        C  0.15942284  0.42446880  0.76957296     0.37000
N244        N  0.09509271  0.46308063  0.56885555    -0.43800
N245        N  0.06772269  0.97604842  0.82356567    -0.44200
N246        N  0.16318275  0.40423521  0.76523180    -0.41600
N247        N  0.13976364  0.04640573  0.78521864    -0.43000
H248        H  0.18210729  0.01705055  0.82716489     0.13100
H249        H  0.11778159  0.43129785  0.73012820     0.09600
H250        H  0.12623057  0.47017160  0.66886815     0.10700
H251        H  0.03979948  0.97868958  0.72214013     0.16500
C252        C  0.36659520  0.50183284  0.40627239    -0.01700
C253        C  0.33931320  0.47630464  0.39462553     0.06900
C254        C  0.33181327  0.44831747  0.41253462    -0.07700
C255        C  0.35054632  0.44556684  0.44313004     0.04300
C256        C  0.37740682  0.47145395  0.45671513    -0.14900
C257        C  0.38530134  0.49927053  0.43704635    -0.08200
C258        C  0.31715585  0.47863148  0.36650451     0.05300
C259        C  0.31939266  0.47778082  0.32094658    -0.09400
C260        C  0.29810818  0.47890499  0.29356453     0.00300
C261        C  0.27390924  0.48111159  0.31201482     0.00100
C262        C  0.27226876  0.48233657  0.35798685    -0.12900
C263        C  0.29346667  0.48104436  0.38504272     0.00600
C264        C  0.30163431  0.47694152  0.24701269     0.39900
C265        C  0.29047159  0.48217179  0.43191469     0.36500
C266        C  0.37547122  0.03094189  0.38780414     0.36300
C267        C  0.34078097  0.41606750  0.46101442     0.37000
N268        N  0.30470392  0.47526878  0.20977971    -0.43800
N269        N  0.28799809  0.98282557  0.46947038    -0.45100
N270        N  0.33290035  0.39237454  0.47518302    -0.41600
N271        N  0.38263441  0.05433330  0.37308139    -0.43000
H272        H  0.40601158  0.01922003  0.44600180     0.13100
H273        H  0.31078991  0.42865442  0.40337998     0.09600
H274        H  0.33766611  0.47583955  0.30677678     0.10700
H275        H  0.25426129  0.48419914  0.37323179     0.16500
C276        C  0.07566333  0.46339850  0.37419195    -0.01700
C277        C  0.10645654  0.47746271  0.38486860     0.06900
C278        C  0.11645374  0.49451122  0.42331100    -0.07700
C279        C  0.09641670  0.49641825  0.45218147     0.04300
C280        C  0.06541437  0.48201182  0.44203215    -0.14900
C281        C  0.05555101  0.46612851  0.40239349    -0.08200
C282        C  0.12889711  0.47481398  0.35707580     0.05300
C283        C  0.13341138  0.48494612  0.31355483    -0.09400
C284        C  0.15643476  0.48569200  0.28789592     0.00300
C285        C  0.17588905  0.47644421  0.30602472     0.00100
C286        C  0.17053248  0.46537372  0.34916619    -0.12900
C287        C  0.14745484  0.46442616  0.37451412     0.00600
C288        C  0.16002326  0.99716925  0.24380184     0.39900
C289        C  0.14354776  0.45279427  0.41854273     0.36500
C290        C  0.06390614  0.44461680  0.33593152     0.36300
C291        C  0.10873250  0.51353567  0.49181234     0.37000
N292        N  0.16270535  0.00626095  0.20843544    -0.43800
N293        N  0.14085414  0.44359820  0.45383587    -0.44200
N294        N  0.11915031  0.02739697  0.52333213    -0.41600
N295        N  0.05445239  0.42945158  0.30534880    -0.43000
H296        H  0.03185128  0.45453064  0.39447115     0.13100
H297        H  0.14015879  0.50600321  0.43127171     0.09600
H298        H  0.11945618  0.49321140  0.29996401     0.10700
H299        H  0.18463903  0.45756887  0.36359187     0.16500
C300        C  0.20576834  0.46737225  0.09891570    -0.01700
C301        C  0.23278672  0.48596641  0.07653320     0.06900
C302        C  0.25885577  0.50444035  0.10042455    -0.07700
C303        C  0.25831343  0.50452601  0.14630071     0.04300
C304        C  0.23122997  0.48573459  0.16888072    -0.14900
C305        C  0.20513290  0.46750746  0.14468264    -0.08200
C306        C  0.23391013  0.48669682  0.02810557     0.05300
C307        C  0.22185073  0.50194620  0.00565542    -0.09400
C308        C  0.22043292  0.50143040  0.95989841     0.00300
C309        C  0.23104303  0.48509563  0.93576024     0.00100
C310        C  0.24411737  0.47074394  0.95849287    -0.12900
C311        C  0.24555127  0.47138580  0.00428662     0.00600
C312        C  0.20848242  0.01829735  0.93882728     0.39900
C313        C  0.25804200  0.45528921  0.02625693     0.36500
C314        C  0.17860914  0.44746976  0.07549242     0.36300
C315        C  0.28549036  0.52505797  0.16917825     0.37000
N316        N  0.19901009  0.03198992  0.92210002    -0.43800
N317        N  0.26802451  0.44237378  0.04391381    -0.44200
N318        N  0.30728076  0.54161260  0.18741721    -0.41600
N319        N  0.15691987  0.43146664  0.05660615    -0.43000
H320        H  0.18427331  0.45285606  0.16158579     0.13100
H321        H  0.27956714  0.51901582  0.08313394     0.09600
H322        H  0.21315608  0.01392498  0.02406130     0.10700
H323        H  0.25237781  0.45815190  0.94059658     0.16500
C324        C  0.34358379  0.32842137  0.79236375    -0.01700
C325        C  0.33868071  0.34070026  0.75409860     0.06900
C326        C  0.30918662  0.33140720  0.74111893    -0.07700
C327        C  0.28468374  0.30937654  0.76466588     0.04300
C328        C  0.28954797  0.29613549  0.80196148    -0.14900
C329        C  0.31907360  0.30652234  0.81614246    -0.08200
C330        C  0.36364472  0.36083305  0.72457306     0.05300
C331        C  0.36478395  0.35005532  0.68294582    -0.09400
C332        C  0.38729611  0.36796260  0.65309637     0.00300
C333        C  0.40950156  0.39756690  0.66480085     0.00100
C334        C  0.40852248  0.40817730  0.70688519    -0.12900
C335        C  0.38574934  0.39018162  0.73659965     0.00600
C336        C  0.38683973  0.35511561  0.61084277     0.39900
C337        C  0.38494019  0.40264510  0.77856325     0.36500
C338        C  0.37347690  0.33664945  0.80642745     0.36300
C339        C  0.25484983  0.30115909  0.75025499     0.37000
N340        N  0.38630374  0.34479532  0.57696122    -0.43800
N341        N  0.38436425  0.41264290  0.81223692    -0.44200
N342        N  0.23095740  0.29468837  0.73879025    -0.41600
N343        N  0.39745499  0.34330834  0.81769417    -0.43000
H344        H  0.32306228  0.29652347  0.84475380     0.13100
H345        H  0.30534244  0.34100182  0.71190609     0.09600
H346        H  0.34785378  0.32742811  0.67370796     0.10700
H347        H  0.42504695  0.43091774  0.71620862     0.16500
C348        C  0.16852759  0.18208482  0.72756776    -0.01700
C349        C  0.14985113  0.15321389  0.74506878     0.06900
C350        C  0.15411022  0.14715579  0.78827468    -0.07700
C351        C  0.17653027  0.16946978  0.81442778     0.04300
C352        C  0.19515508  0.19882826  0.79729312    -0.14900
C353        C  0.19070830  0.20456824  0.75367002    -0.08200
C354        C  0.12720107  0.12854816  0.71762525     0.05300
C355        C  0.13320334  0.10630723  0.70308748    -0.09400
C356        C  0.11427357  0.08443217  0.67311305     0.00300
C357        C  0.08862446  0.08477224  0.65669038     0.00100
C358        C  0.08187085  0.10621280  0.67369360    -0.12900
C359        C  0.10079132  0.12784649  0.70396891     0.00600
C360        C  0.12260808  0.06272781  0.65938327     0.39900
C361        C  0.09276413  0.14917278  0.72056309     0.36500
C362        C  0.16610726  0.18877125  0.68233292     0.36300
C363        C  0.18052265  0.16081552  0.85775597     0.37000
N364        N  0.12962338  0.04554272  0.64863484    -0.43800
N365        N  0.08630729  0.16619560  0.73408414    -0.44200
N366        N  0.18360119  0.15357505  0.89234361    -0.41600
N367        N  0.16423239  0.19400718  0.64601267    -0.43000
H368        H  0.20475617  0.22666177  0.73955261     0.13100
H369        H  0.14013512  0.12469289  0.80134791     0.09600
H370        H  0.15334262  0.10661939  0.71427221     0.10700
H371        H  0.06200918  0.10654139  0.66282449     0.16500
C372        C  0.34750011  0.32408280  0.31791334    -0.01700
C373        C  0.34301920  0.33147237  0.36055301     0.06900
C374        C  0.31415861  0.31654486  0.37875080    -0.07700
C375        C  0.28991949  0.29397834  0.35555969     0.04300
C376        C  0.29445168  0.28583633  0.31312608    -0.14900
C377        C  0.32330370  0.30151700  0.29455016    -0.08200
C378        C  0.36814044  0.35423559  0.38733156     0.05300
C379        C  0.38183839  0.38474001  0.37578817    -0.09400
C380        C  0.40426627  0.40694106  0.40220282     0.00300
C381        C  0.41320576  0.39856038  0.44090579     0.00100
C382        C  0.39966808  0.36795233  0.45189253    -0.12900
C383        C  0.37753329  0.34586908  0.42542723     0.00600
C384        C  0.41616542  0.43808197  0.39043361     0.39900
C385        C  0.36481191  0.31474039  0.43801138     0.36500
C386        C  0.37693213  0.33855962  0.29821124     0.36300
C387        C  0.26063582  0.28046033  0.37574950     0.37000
N388        N  0.42556366  0.46303944  0.38107567    -0.43800
N389        N  0.35468415  0.28981665  0.44813225    -0.44200
N390        N  0.23726387  0.26989918  0.39216148    -0.41600
N391        N  0.40055861  0.35015912  0.28250530    -0.43000
H392        H  0.32719722  0.29558504  0.26211634     0.13100
H393        H  0.31061319  0.32258230  0.41134114     0.09600
H394        H  0.37437609  0.39123597  0.34674102     0.10700
H395        H  0.40626823  0.36121950  0.48157557     0.16500
C396        C  0.17745564  0.16942668  0.38367924    -0.01700
C397        C  0.15308055  0.14441816  0.36385828     0.06900
C398        C  0.15324589  0.14071158  0.31840249    -0.07700
C399        C  0.17688663  0.16205202  0.29243651     0.04300
C400        C  0.20072428  0.18814261  0.31210779    -0.14900
C401        C  0.20071546  0.19085568  0.35798340    -0.08200
C402        C  0.12759476  0.12220495  0.39083845     0.05300
C403        C  0.11149108  0.13224398  0.41593857    -0.09400
C404        C  0.09143461  0.11405423  0.44842551     0.00300
C405        C  0.08665376  0.08477940  0.45548017     0.00100
C406        C  0.10110534  0.07404060  0.42790093    -0.12900
C407        C  0.12155846  0.09245239  0.39599169     0.00600
C408        C  0.07816468  0.12701795  0.47615591     0.39900
C409        C  0.13732205  0.08085506  0.37093104     0.36500
C410        C  0.17940246  0.17341580  0.43063182     0.36300
C411        C  0.17605880  0.15593190  0.24619683     0.37000
N412        N  0.06771904  0.13748002  0.49861198    -0.43800
N413        N  0.14984638  0.07140147  0.35093735    -0.44200
N414        N  0.17521951  0.15060803  0.20924661    -0.41600
N415        N  0.18090494  0.17656532  0.46822516    -0.43000
H416        H  0.21892097  0.20994398  0.37436271     0.13100
H417        H  0.13477280  0.12113618  0.30317411     0.09600
H418        H  0.11598736  0.15510537  0.41181642     0.10700
H419        H  0.09712078  0.05140612  0.43212967     0.16500
C420        C  0.27293971  0.25573944  0.00628323    -0.01700
C421        C  0.24654579  0.24030667  0.03140458     0.06900
C422        C  0.21865865  0.22629831  0.01035565    -0.07700
C423        C  0.21667550  0.22748865  0.96479634     0.04300
C424        C  0.24314834  0.24285246  0.93932475    -0.14900
C425        C  0.27107217  0.25689144  0.96069957    -0.08200
C426        C  0.24739302  0.23950457  0.07984483     0.05300
C427        C  0.25710267  0.26627306  0.10315029    -0.09400
C428        C  0.25731252  0.26644792  0.14893957     0.00300
C429        C  0.24770000  0.23933028  0.17226391     0.00100
C430        C  0.23787026  0.21251670  0.14874112    -0.12900
C431        C  0.23770228  0.21242706  0.10290824     0.00600
C432        C  0.26620990  0.29455092  0.17091708     0.39900
C433        C  0.22812487  0.18445152  0.08017011     0.36500
C434        C  0.30217772  0.27011099  0.02653525     0.36300
C435        C  0.18712080  0.21394499  0.94564709     0.37000
N436        N  0.27328236  0.31707852  0.18846223    -0.43800
N437        N  0.22049951  0.16207972  0.06183428    -0.44200
N438        N  0.16337900  0.20310435  0.93049210    -0.41600
N439        N  0.32560365  0.28162443  0.04278271    -0.43000
H440        H  0.29159390  0.26859153  0.94174915     0.13100
H441        H  0.19831805  0.21485193  0.02977507     0.09600
H442        H  0.26409646  0.28703765  0.08541357     0.10700
H443        H  0.23074207  0.19163708  0.16617722     0.16500
C444        C  0.22554248  0.71335579  0.28702923     0.80500
N445        N  0.24788260  0.73673777  0.30925774    -0.77800
C446        C  0.27003863  0.76079688  0.28806640     0.83000
N447        N  0.26999272  0.76133722  0.24368264    -0.77700
C448        C  0.24779191  0.73832859  0.22071813     0.83100
N449        N  0.22567249  0.71436563  0.24255724    -0.79400
C450        C  0.21967873  0.72360945  0.82304378     0.80500
N451        N  0.22014668  0.72235594  0.86739026    -0.77800
C452        C  0.24257039  0.74474004  0.89086942     0.83000
N453        N  0.26499076  0.76862609  0.86946879    -0.77700
C454        C  0.26461345  0.77052986  0.82518498     0.83100
N455        N  0.24199807  0.74793413  0.80220794    -0.79400
C456        C  0.24977227  0.98158250  0.28532249     0.80500
N457        N  0.22507721  0.97907111  0.30550994    -0.77800
C458        C  0.20250447  0.97898458  0.28236652     0.83000
N459        N  0.20477116  0.98122722  0.23806812    -0.77700
C460        C  0.22943467  0.98413517  0.21726315     0.83100
N461        N  0.25175420  0.98423939  0.24105290    -0.79400
C462        C  0.24362991  0.97297540  0.81926684     0.80500
N463        N  0.24738913  0.97728613  0.86324270    -0.77800
C464        C  0.22753446  0.98138049  0.88751376     0.83000
N465        N  0.20361295  0.98059455  0.86746609    -0.77700
C466        C  0.19959596  0.97595427  0.82374022     0.83100
N467        N  0.21974067  0.97240811  0.79978295    -0.79400
C468        C  0.48704110  0.73723363  0.28621632     0.80500
N469        N  0.48846034  0.73757667  0.24194267    -0.77800
C470        C  0.48783195  0.71447648  0.21963400     0.83000
N471        N  0.48554153  0.69056020  0.24204609    -0.77700
C472        C  0.48429968  0.69000612  0.28647589     0.83100
N473        N  0.48527525  0.71347679  0.30825891    -0.79400
C474        C  0.49947232  0.74114865  0.82167368     0.80500
N475        N  0.49872504  0.71713894  0.80179313    -0.77800
C476        C  0.49597585  0.69344582  0.82518296     0.83000
N477        N  0.49413090  0.69398097  0.86935261    -0.77700
C478        C  0.49452846  0.71755068  0.89002599     0.83100
N479        N  0.49718508  0.74108320  0.86604339    -0.79400
O480        O  0.41483176  0.49540862  0.51107987    -0.87900
C481        C  0.06951508  0.56449341  0.62080135     1.12200
O482        O  0.45373029  0.97312090  0.55532752    -1.35700
O483        O  0.04699877  0.56850198  0.50727856    -0.89400
O484        O  0.39457777  0.94584032  0.50327990    -0.90000
O485        O  0.45658844  0.94525682  0.46132862    -0.78800
O486        O  0.48110517  0.53239530  0.51739544    -1.00900
C487        C  0.04302331  0.98113304  0.47376373     1.22200
O488        O  0.48824411  0.94540840  0.55317759    -1.35800
Mn489      Mn  0.48589175  0.97443967  0.60205169     1.82100
O490        O  0.01887513  0.97941763  0.46197976    -0.77900
O491        O  0.07522169  0.54683024  0.50789766    -0.87300
C492        C  0.04141567  0.97682157  0.63391285     1.13300
C493        C  0.06841970  0.56556788  0.49242221     1.08000
O494        O  0.45540279  0.94180838  0.64537599    -0.78900
O495        O  0.01608989  0.50776762  0.55578186    -1.32600
O496        O  0.42855933  0.91374081  0.59382810    -0.98100
C497        C  0.49270639  0.89385126  0.48688047     1.06700
Mn498      Mn  0.05956531  0.51321788  0.55552335     1.48600
O499        O  0.46723139  0.88685990  0.50285057    -0.87300
Mn500      Mn  0.41263731  0.93146033  0.55255833     1.49600
O501        O  0.41596974  0.49289270  0.60937799    -0.91100
C502        C  0.48140005  0.52896274  0.47799384     1.19900
C503        C  0.39510152  0.96656361  0.61945427     1.12000
Mn504      Mn  0.48632516  0.97646359  0.50727404     1.81000
O505        O  0.04635696  0.97874276  0.59482493    -0.96300
Mn506      Mn  0.44817940  0.51115286  0.55921649     1.49300
C507        C  0.39679856  0.97072441  0.49235338     1.08500
Mn508      Mn  0.02985753  0.94611591  0.55237384     1.49900
C509        C  0.49204681  0.89063737  0.61421979     1.11400
O510        O  0.43011768  0.91543114  0.51160075    -1.02100
O511        O  0.07509666  0.54477674  0.60588262    -0.91800
C512        C  0.43445037  0.92072249  0.47261790     1.22700
O513        O  0.04727576  0.98080256  0.51289552    -1.02500
O514        O  0.04863626  0.56822094  0.60553792    -0.89900
O515        O  0.01660167  0.91217259  0.59961623    -0.89500
O516        O  0.39131345  0.94289817  0.60063623    -0.89500
Mn517      Mn  0.01539089  0.54878708  0.55736942     1.47900
O518        O  0.01749913  0.97523713  0.64626234    -0.78000
C519        C  0.43242468  0.91832856  0.63307117     1.15700
O520        O  0.48419382  0.50743142  0.46461729    -0.76700
O521        O  0.48460858  0.50375125  0.64859265    -0.76300
Mn522      Mn  0.44998977  0.90181441  0.55234295     1.51100
O523        O  0.01704285  0.91509899  0.50190833    -0.88700
O524        O  0.48225231  0.53139836  0.59937197    -0.96200
O525        O  0.46651200  0.88519392  0.60055434    -0.91200
C526        C  0.48353498  0.52669738  0.63810928     1.13500
C527        C  0.00646261  0.64905245  0.73521486    -0.01700
C528        C  0.49237968  0.61974175  0.75271021     0.06900
C529        C  0.48125778  0.61482029  0.79557915    -0.07700
C530        C  0.48267083  0.63840727  0.82048077     0.04300
C531        C  0.49539887  0.66765905  0.80212041    -0.14900
C532        C  0.00762521  0.67252977  0.75969592    -0.08200
C533        C  0.48799534  0.59390962  0.72578982     0.05300
C534        C  0.50363942  0.57891068  0.73620556    -0.09400
C535        C  0.50186047  0.55610426  0.70899345     0.00300
C536        C  0.48423529  0.54826096  0.67061195     0.00100
C537        C  0.46781894  0.56263484  0.66129807    -0.12900
C538        C  0.46929974  0.58502575  0.68864763     0.00600
C539        C  0.51947469  0.54232284  0.72000306     0.39900
C540        C  0.45158308  0.59873713  0.67772749     0.36500
C541        C  0.01981115  0.65550889  0.69209770     0.36300
C542        C  0.46990510  0.63141142  0.86393912     0.37000
N543        N  0.53369869  0.53140003  0.72890217    -0.43800
N544        N  0.43744164  0.60975537  0.66886296    -0.44200
N545        N  0.45973254  0.62564757  0.89879988    -0.41600
N546        N  0.03048120  0.66058445  0.65755280    -0.43000
H547        H  0.01815472  0.69481796  0.74534371     0.13100
H548        H  0.47070880  0.59229704  0.80915861     0.09600
H549        H  0.51796505  0.58568980  0.76486111     0.10700
H550        H  0.45382961  0.55642525  0.63230409     0.16500
C551        C  0.52044830  0.86307246  0.70789120    -0.01700
C552        C  0.49894491  0.83213330  0.70904189     0.06900
C553        C  0.47428857  0.82097041  0.68068266    -0.07700
C554        C  0.47144849  0.83956379  0.65003984     0.04300
C555        C  0.49333110  0.87047083  0.64793010    -0.14900
C556        C  0.51756799  0.88190417  0.67740184    -0.08200
C557        C  0.50196638  0.81047004  0.73800118     0.05300
C558        C  0.00332915  0.81425484  0.78348552    -0.09400
C559        C  0.00410799  0.79303252  0.81158156     0.00300
C560        C  0.50191412  0.76640916  0.79419944     0.00100
C561        C  0.50157847  0.76338766  0.74831811    -0.12900
C562        C  0.50211964  0.78519079  0.72045189     0.00600
C563        C  0.00842454  0.80015295  0.85762439     0.39900
C564        C  0.50341963  0.78134218  0.67379460     0.36500
C565        C  0.54598550  0.87578199  0.73684626     0.36300
C566        C  0.44686621  0.82566619  0.61940237     0.37000
N567        N  0.01246462  0.80648702  0.89432457    -0.43800
N568        N  0.50459750  0.77832516  0.63644501    -0.44200
N569        N  0.42726169  0.81435957  0.59474621    -0.41600
N570        N  0.56617092  0.88569698  0.76059099    -0.43000
H571        H  0.53446085  0.90555682  0.67639341     0.13100
H572        H  0.45751642  0.79726671  0.68169287     0.09600
H573        H  0.00370609  0.83388983  0.79722196     0.10700
H574        H  0.50084602  0.74382936  0.73367746     0.16500
C575        C  0.99390979  0.57667709  0.37698931    -0.01700
C576        C  0.48205716  0.59491221  0.39036867     0.06900
C577        C  0.46881075  0.59051408  0.43172991    -0.07700
C578        C  0.46801884  0.56904528  0.46051708     0.04300
C579        C  0.48006777  0.55074751  0.44754446    -0.14900
C580        C  0.99257364  0.55460839  0.40539847    -0.08200
C581        C  0.48393461  0.61941108  0.36252441     0.05300
C582        C  0.46734262  0.61225159  0.32359954    -0.09400
C583        C  0.46704449  0.63479033  0.29812663     0.00300
C584        C  0.48380582  0.66513346  0.31153273     0.00100
C585        C  0.00048632  0.67215134  0.35035092    -0.12900
C586        C  0.00071203  0.64968981  0.37577774     0.00600
C587        C  0.44793176  0.62595339  0.26005242     0.39900
C588        C  0.01834222  0.65827958  0.41540175     0.36500
C589        C  0.00871675  0.58117885  0.33524419     0.36300
C590        C  0.45462434  0.56653101  0.50302738     0.37000
N591        N  0.43241118  0.61877766  0.22974347    -0.43800
N592        N  0.03236459  0.66520358  0.44723910    -0.44200
N593        N  0.44393531  0.56475301  0.53703743    -0.41600
N594        N  0.02070000  0.58491112  0.30184506    -0.43000
H595        H  0.00225363  0.54109176  0.39518307     0.13100
H596        H  0.45948619  0.60438325  0.44184285     0.09600
H597        H  0.45395816  0.58891367  0.31377842     0.10700
H598        H  0.01356833  0.69537175  0.36086912     0.16500
C599        C  0.46573144  0.83353870  0.40008059    -0.01700
C600        C  0.49260017  0.83498203  0.38696094     0.06900
C601        C  0.01994218  0.85796338  0.40282248    -0.07700
C602        C  0.02090265  0.87837259  0.43387053     0.04300
C603        C  0.49378540  0.87574976  0.44971623    -0.14900
C604        C  0.46652166  0.85381614  0.43111228    -0.08200
C605        C  0.49233298  0.81082627  0.36053413     0.05300
C606        C  0.98284397  0.80704864  0.31694633    -0.09400
C607        C  0.98082544  0.78333331  0.29187480     0.00300
C608        C  0.48868286  0.76295301  0.31066003     0.00100
C609        C  0.49846840  0.76718945  0.35438006    -0.12900
C610        C  0.50030100  0.79078234  0.37928737     0.00600
C611        C  0.96965939  0.78014140  0.24772058     0.39900
C612        C  0.50959972  0.79347475  0.42446351     0.36500
C613        C  0.43695554  0.81044543  0.38403031     0.36300
C614        C  0.05000973  0.90060067  0.45003487     0.37000
N615        N  0.96066302  0.77772005  0.21237891    -0.43800
N616        N  0.51704465  0.79570229  0.46064730    -0.44200
N617        N  0.07328995  0.91840369  0.46315260    -0.41600
N618        N  0.41387592  0.79201755  0.37113704    -0.43000
H619        H  0.44548432  0.85164348  0.44189432     0.13100
H620        H  0.04062444  0.85917038  0.39217033     0.09600
H621        H  0.97667557  0.82252400  0.30268118     0.10700
H622        H  0.50476052  0.75202353  0.36937134     0.16500
C623        C  0.47360131  0.68823806  0.10217056    -0.01700
C624        C  0.49097015  0.71530404  0.07907537     0.06900
C625        C  0.00716908  0.74222239  0.10216638    -0.07700
C626        C  0.00663742  0.74254768  0.14791462     0.04300
C627        C  0.48959268  0.71538122  0.17129863    -0.14900
C628        C  0.47328797  0.68842094  0.14792968    -0.08200
C629        C  0.49227493  0.71608054  0.03072940     0.05300
C630        C  0.47862220  0.72966974  0.00788314    -0.09400
C631        C  0.47892590  0.73047891  0.96206612     0.00300
C632        C  0.49347447  0.71775775  0.93845003     0.00100
C633        C  0.50726915  0.70432251  0.96165982    -0.12900
C634        C  0.50691974  0.70354244  0.00736382     0.00600
C635        C  0.46275332  0.74301022  0.94049041     0.39900
C636        C  0.02230245  0.69045820  0.02961382     0.36500
C637        C  0.45518471  0.66022665  0.07955380     0.36300
C638        C  0.02464484  0.77099601  0.16975768     0.37000
N639        N  0.44956583  0.75297239  0.92360749    -0.43800
N640        N  0.03470670  0.67998601  0.04740523    -0.44200
N641        N  0.03903066  0.79382417  0.18717980    -0.41600
N642        N  0.44033409  0.63781289  0.06139272    -0.43000
H643        H  0.45968890  0.66751498  0.16540632     0.13100
H644        H  0.02053184  0.76303763  0.08431552     0.09600
H645        H  0.46722804  0.73918701  0.02597303     0.10700
H646        H  0.01873633  0.69475000  0.94406316     0.16500
C647        C  0.29433822  0.98222068  0.72417476    -0.01700
C648        C  0.30679427  0.96448521  0.73715885     0.06900
C649        C  0.29850810  0.94945954  0.77751151    -0.07700
C650        C  0.27786288  0.95175144  0.80484767     0.04300
C651        C  0.26560051  0.96975449  0.79205232    -0.14900
C652        C  0.27387988  0.98463744  0.75151358    -0.08200
C653        C  0.32880214  0.96181719  0.70908420     0.05300
C654        C  0.35895247  0.97624498  0.72192370    -0.09400
C655        C  0.38090177  0.97681364  0.69419948     0.00300
C656        C  0.37276177  0.96330804  0.65252444     0.00100
C657        C  0.34230837  0.94720197  0.64097671    -0.12900
C658        C  0.32032649  0.94620230  0.66898849     0.00600
C659        C  0.41104867  0.98950670  0.71056099     0.39900
C660        C  0.28928312  0.42921717  0.65599963     0.36500
C661        C  0.30266562  0.49862352  0.68329180     0.36300
C662        C  0.26833948  0.93406981  0.84446519     0.37000
N663        N  0.43478395  0.99892759  0.72515998    -0.43800
N664        N  0.26435489  0.41541827  0.64574057    -0.44200
N665        N  0.26047777  0.91966931  0.87600842    -0.41600
N666        N  0.30927456  0.51162430  0.65046455    -0.43000
H667        H  0.26461838  0.49858225  0.74137513     0.13100
H668        H  0.30783848  0.93555042  0.78728203     0.09600
H669        H  0.36536448  0.98736639  0.75347394     0.10700
H670        H  0.33578025  0.43617154  0.60942438     0.16500
C671        C  0.14458430  0.99841171  0.78278091    -0.01700
C672        C  0.12618260  0.97399332  0.75520419     0.06900
C673        C  0.13141666  0.94978997  0.75187984    -0.07700
C674        C  0.15478275  0.94974761  0.77478552     0.04300
C675        C  0.17325116  0.97415368  0.80217020    -0.14900
C676        C  0.16756762  0.99800568  0.80672764    -0.08200
C677        C  0.10375900  0.97450738  0.72541684     0.05300
C678        C  0.10738558  0.97215908  0.68048131    -0.09400
C679        C  0.08705562  0.97200913  0.65035887     0.00300
C680        C  0.06275198  0.97538041  0.66499776     0.00100
C681        C  0.05873709  0.97702182  0.71024606    -0.12900
C682        C  0.07876999  0.97621709  0.74046712     0.00600
C683        C  0.09152329  0.96730035  0.60497575     0.39900
C684        C  0.07268075  0.47617997  0.78660704     0.36500
C685        C  0.14193920  0.52510358  0.78421938     0.36300
C686        C  0.15942645  0.92445029  0.76943576     0.37000
N687        N  0.09511768  0.96313804  0.56882586    -0.43800
N688        N  0.06775640  0.47611730  0.82358140    -0.44200
N689        N  0.16319635  0.90422625  0.76504783    -0.41600
N690        N  0.13980110  0.54645981  0.78511492    -0.43000
H691        H  0.18215112  0.51712799  0.82711906     0.13100
H692        H  0.11779037  0.93129915  0.73001955     0.09600
H693        H  0.12624220  0.97020143  0.66883809     0.10700
H694        H  0.03981509  0.47871525  0.72214937     0.16500
C695        C  0.36661412  0.00176808  0.40615968    -0.01700
C696        C  0.33929201  0.97625489  0.39460831     0.06900
C697        C  0.33174833  0.94828292  0.41262194    -0.07700
C698        C  0.35047912  0.94553636  0.44322455     0.04300
C699        C  0.37738419  0.97141152  0.45670475    -0.14900
C700        C  0.38531990  0.99920902  0.43693821    -0.08200
C701        C  0.31713812  0.97858914  0.36648854     0.05300
C702        C  0.31941411  0.97781000  0.32092818    -0.09400
C703        C  0.29813335  0.97894109  0.29354582     0.00300
C704        C  0.27390214  0.98109029  0.31199851     0.00100
C705        C  0.27222334  0.98224464  0.35797445    -0.12900
C706        C  0.29341381  0.98093908  0.38502965     0.00600
C707        C  0.30169973  0.97704553  0.24698971     0.39900
C708        C  0.29037937  0.98199633  0.43190441     0.36500
C709        C  0.37541490  0.53102055  0.38800345     0.36300
C710        C  0.34066213  0.91606081  0.46124201     0.37000
N711        N  0.30480238  0.97542429  0.20975401    -0.43800
N712        N  0.28812130  0.48305783  0.46947835    -0.45100
N713        N  0.33273935  0.89238744  0.47552083    -0.41600
N714        N  0.38254846  0.55442237  0.37334677    -0.43000
H715        H  0.40596052  0.51929372  0.44618161     0.13100
H716        H  0.31069234  0.92863205  0.40354669     0.09600
H717        H  0.33771381  0.97591557  0.30675565     0.10700
H718        H  0.25419026  0.98405979  0.37322457     0.16500
C719        C  0.07568857  0.96346096  0.37416659    -0.01700
C720        C  0.10648095  0.97752536  0.38485150     0.06900
C721        C  0.11647159  0.99457023  0.42329816    -0.07700
C722        C  0.09642898  0.99646739  0.45216900     0.04300
C723        C  0.06542646  0.98205189  0.44201877    -0.14900
C724        C  0.05557008  0.96617809  0.40237176    -0.08200
C725        C  0.12892600  0.97487678  0.35706691     0.05300
C726        C  0.13343672  0.98499503  0.31353861    -0.09400
C727        C  0.15645524  0.98572885  0.28788134     0.00300
C728        C  0.17590920  0.97648354  0.30601858     0.00100
C729        C  0.17056018  0.96543246  0.34917057    -0.12900
C730        C  0.14748721  0.96449631  0.37451700     0.00600
C731        C  0.16000822  0.49714863  0.24382564     0.39900
C732        C  0.14358824  0.95288205  0.41855570     0.36500
C733        C  0.06393841  0.94469543  0.33588947     0.36300
C734        C  0.10873966  0.01358575  0.49180027     0.37000
N735        N  0.16269460  0.50625328  0.20846662    -0.43800
N736        N  0.14090198  0.94370122  0.45385731    -0.44200
N737        N  0.11914654  0.52734555  0.52334416    -0.41600
N738        N  0.05449031  0.92954569  0.30529083    -0.43000
H739        H  0.03187111  0.95457824  0.39444405     0.13100
H740        H  0.14017613  0.00606678  0.43126256     0.09600
H741        H  0.11948118  0.99325696  0.29993862     0.10700
H742        H  0.18466762  0.95763163  0.36360483     0.16500
C743        C  0.20573611  0.96726730  0.09891992    -0.01700
C744        C  0.23274221  0.98587564  0.07651880     0.06900
C745        C  0.25881050  0.00438186  0.10039107    -0.07700
C746        C  0.25827901  0.00448745  0.14626684     0.04300
C747        C  0.23120729  0.98568585  0.16886476    -0.14900
C748        C  0.20511100  0.96742438  0.14468662    -0.08200
C749        C  0.23385195  0.98659518  0.02809114     0.05300
C750        C  0.22177461  0.00182893  0.00564482    -0.09400
C751        C  0.22035694  0.00131526  0.95988821     0.00300
C752        C  0.23098465  0.98499708  0.93574563     0.00100
C753        C  0.24407226  0.97065715  0.95847573    -0.12900
C754        C  0.24550705  0.97129824  0.00426948     0.00600
C755        C  0.20857429  0.51842450  0.93883092     0.39900
C756        C  0.25801790  0.95521935  0.02623706     0.36500
C757        C  0.17858010  0.94732922  0.07551714     0.36300
C758        C  0.28545257  0.02504996  0.16912513     0.37000
N759        N  0.19911491  0.53212654  0.92209723    -0.43800
N760        N  0.26801693  0.94231844  0.04389188    -0.44200
N761        N  0.30724082  0.04162920  0.18734713    -0.41600
N762        N  0.15689327  0.93129653  0.05664854    -0.43000
H763        H  0.18426126  0.95276427  0.16160613     0.13100
H764        H  0.27951199  0.01896770  0.08308572     0.09600
H765        H  0.21324284  0.51405285  0.02406911     0.10700
H766        H  0.25234603  0.95807759  0.94057736     0.16500
C767        C  0.34360944  0.82839782  0.79232678    -0.01700
C768        C  0.33869604  0.84069565  0.75409097     0.06900
C769        C  0.30919951  0.83141736  0.74114332    -0.07700
C770        C  0.28470285  0.80938178  0.76469262     0.04300
C771        C  0.28957694  0.79612500  0.80195993    -0.14900
C772        C  0.31910539  0.80649667  0.81611117    -0.08200
C773        C  0.36365037  0.86083015  0.72455672     0.05300
C774        C  0.36476646  0.85006249  0.68291208    -0.09400
C775        C  0.38727358  0.86796977  0.65305773     0.00300
C776        C  0.40949938  0.89756257  0.66477787     0.00100
C777        C  0.40853996  0.90816394  0.70687742    -0.12900
C778        C  0.38577022  0.89016901  0.73659535     0.00600
C779        C  0.38678764  0.85513553  0.61078146     0.39900
C780        C  0.38498059  0.90262294  0.77857668     0.36500
C781        C  0.37350550  0.83660598  0.80634842     0.36300
C782        C  0.25486504  0.80117183  0.75031127     0.37000
N783        N  0.38622753  0.84482655  0.57688111    -0.43800
N784        N  0.38441913  0.91261239  0.81226436    -0.44200
N785        N  0.23096929  0.79470579  0.73886987    -0.41600
N786        N  0.39748608  0.84324831  0.81757982    -0.43000
H787        H  0.32309982  0.79648261  0.84469946     0.13100
H788        H  0.30534839  0.84102529  0.71195117     0.09600
H789        H  0.34782215  0.82744305  0.67366475     0.10700
H790        H  0.42507844  0.93089677  0.71621235     0.16500
C791        C  0.16855936  0.68208682  0.72755571    -0.01700
C792        C  0.14989377  0.65320871  0.74504196     0.06900
C793        C  0.15417012  0.64713720  0.78823296    -0.07700
C794        C  0.17659433  0.66944565  0.81438678     0.04300
C795        C  0.19520225  0.69881209  0.79727049    -0.14900
C796        C  0.19074119  0.70456526  0.75366149    -0.08200
C797        C  0.12724097  0.62854847  0.71759460     0.05300
C798        C  0.13323225  0.60629779  0.70306798    -0.09400
C799        C  0.11430020  0.58442480  0.67309371     0.00300
C800        C  0.08865634  0.58477300  0.65666657     0.00100
C801        C  0.08191425  0.60622490  0.67365605    -0.12900
C802        C  0.10083979  0.62786011  0.70392506     0.00600
C803        C  0.12262901  0.56271592  0.65936534     0.39900
C804        C  0.09282734  0.64920295  0.72049547     0.36500
C805        C  0.16612966  0.68878556  0.68233031     0.36300
C806        C  0.18061268  0.66077873  0.85769202     0.37000
N807        N  0.12964051  0.54552806  0.64861625    -0.43800
N808        N  0.08638270  0.66624030  0.73399332    -0.44200
N809        N  0.18371403  0.65352931  0.89226060    -0.41600
N810        N  0.16424792  0.69403133  0.64601723    -0.43000
H811        H  0.20477896  0.72666543  0.73955779     0.13100
H812        H  0.14020631  0.62466818  0.80129240     0.09600
H813        H  0.15336628  0.60660170  0.71425919     0.10700
H814        H  0.06205809  0.60656170  0.66277990     0.16500
C815        C  0.34752887  0.82408689  0.31785748    -0.01700
C816        C  0.34305380  0.83147647  0.36049979     0.06900
C817        C  0.31419562  0.81655152  0.37870501    -0.07700
C818        C  0.28995297  0.79398517  0.35551954     0.04300
C819        C  0.29448172  0.78583247  0.31309195    -0.14900
C820        C  0.32333097  0.80151372  0.29450613    -0.08200
C821        C  0.36817771  0.85423742  0.38727510     0.05300
C822        C  0.38185242  0.88474553  0.37576485    -0.09400
C823        C  0.40427402  0.90694335  0.40219049     0.00300
C824        C  0.41322775  0.89855571  0.44087335     0.00100
C825        C  0.39971481  0.86794401  0.45182518    -0.12900
C826        C  0.37758976  0.84586366  0.42534402     0.00600
C827        C  0.41615256  0.93808667  0.39045424     0.39900
C828        C  0.36489747  0.81473019  0.43788254     0.36500
C829        C  0.37695512  0.83857644  0.29813653     0.36300
C830        C  0.26066832  0.78048693  0.37570195     0.37000
N831        N  0.42553568  0.96304607  0.38112247    -0.43800
N832        N  0.35479403  0.78980213  0.44796309    -0.44200
N833        N  0.23729633  0.76994804  0.39210899    -0.41600
N834        N  0.40057618  0.85018792  0.28241252    -0.43000
H835        H  0.32722083  0.79557909  0.26207190     0.13100
H836        H  0.31065423  0.82259361  0.41129448     0.09600
H837        H  0.37437643  0.89124599  0.34673663     0.10700
H838        H  0.40632591  0.86120631  0.48149289     0.16500
C839        C  0.17741083  0.66947671  0.38364706    -0.01700
C840        C  0.15309180  0.64441164  0.36383216     0.06900
C841        C  0.15332130  0.64065598  0.31839518    -0.07700
C842        C  0.17697212  0.66199540  0.29244167     0.04300
C843        C  0.20074905  0.68813790  0.31209969    -0.14900
C844        C  0.20067515  0.69090697  0.35795902    -0.08200
C845        C  0.12760725  0.62218325  0.39080348     0.05300
C846        C  0.11144818  0.63219167  0.41583388    -0.09400
C847        C  0.09140065  0.61400513  0.44833195     0.00300
C848        C  0.08667383  0.58475618  0.45545751     0.00100
C849        C  0.10117681  0.57404104  0.42793878    -0.12900
C850        C  0.12162877  0.59245454  0.39602914     0.00600
C851        C  0.07808845  0.62695368  0.47600658     0.39900
C852        C  0.13745277  0.58088777  0.37104901     0.36500
C853        C  0.17930155  0.67352042  0.43058935     0.36300
C854        C  0.17623029  0.65581256  0.24623615     0.37000
N855        N  0.06761123  0.63740362  0.49842373    -0.43800
N856        N  0.15002637  0.57145939  0.35112021    -0.44200
N857        N  0.17546124  0.65043636  0.20931589    -0.41600
N858        N  0.18075917  0.67671267  0.46817454    -0.43000
H859        H  0.21883487  0.71003800  0.37433125     0.13100
H860        H  0.13489527  0.62103815  0.30317254     0.09600
H861        H  0.11589844  0.65503362  0.41165642     0.10700
H862        H  0.09723627  0.55142610  0.43221825     0.16500
C863        C  0.27297119  0.75575053  0.00627515    -0.01700
C864        C  0.24657841  0.74028711  0.03139130     0.06900
C865        C  0.21869303  0.72624905  0.01033764    -0.07700
C866        C  0.21671032  0.72743767  0.96477842     0.04300
C867        C  0.24318247  0.74282891  0.93931152    -0.14900
C868        C  0.27110439  0.75689894  0.96069166    -0.08200
C869        C  0.24742346  0.73948358  0.07983106     0.05300
C870        C  0.25711816  0.76624894  0.10313778    -0.09400
C871        C  0.25732801  0.76642267  0.14892628     0.00300
C872        C  0.24772804  0.73930670  0.17224872     0.00100
C873        C  0.23791356  0.71249611  0.14872551    -0.12900
C874        C  0.23774693  0.71240770  0.10289268     0.00600
C875        C  0.26621489  0.79452293  0.17090534     0.39900
C876        C  0.22818654  0.68443588  0.08015287     0.36500
C877        C  0.30220820  0.77016032  0.02653206     0.36300
C878        C  0.18715493  0.71386313  0.94562557     0.37000
N879        N  0.27327994  0.81704828  0.18845232    -0.43800
N880        N  0.22057462  0.66206739  0.06181490    -0.44200
N881        N  0.16341258  0.70299816  0.93046766    -0.41600
N882        N  0.32563330  0.78170600  0.04278338    -0.43000
H883        H  0.29162606  0.76862233  0.94174603     0.13100
H884        H  0.19835261  0.71478081  0.02975345     0.09600
H885        H  0.26410139  0.78701199  0.08540263     0.10700
H886        H  0.23079814  0.69161907  0.16616105     0.16500
C887        C  0.72553742  0.21338688  0.28703848     0.80500
N888        N  0.74788709  0.23678040  0.30923355    -0.77800
C889        C  0.77003048  0.26083135  0.28801315     0.83000
N890        N  0.76996412  0.26135344  0.24362696    -0.77700
C891        C  0.74774929  0.23833152  0.22069102     0.83100
N892        N  0.72564058  0.21437674  0.24256371    -0.79400
C893        C  0.71963234  0.22362372  0.82298148     0.80500
N894        N  0.72009401  0.22237578  0.86732842    -0.77800
C895        C  0.74251526  0.24475744  0.89081193     0.83000
N896        N  0.76494378  0.26863924  0.86941429    -0.77700
C897        C  0.76457395  0.27054133  0.82512721     0.83100
N898        N  0.74195778  0.24794589  0.80214546    -0.79400
C899        C  0.74985896  0.48172605  0.28531712     0.80500
N900        N  0.72515391  0.47919431  0.30550223    -0.77800
C901        C  0.70258418  0.47911766  0.28236699     0.83000
N902        N  0.70486183  0.48139002  0.23807150    -0.77700
C903        C  0.72953220  0.48431597  0.21726160     0.83100
N904        N  0.75185068  0.48440905  0.24104707    -0.79400
C905        C  0.74377538  0.47326602  0.81923305     0.80500
N906        N  0.74752227  0.47755126  0.86321456    -0.77800
C907        C  0.72765620  0.48162564  0.88748910     0.83000
N908        N  0.70373033  0.48083335  0.86744333    -0.77700
C909        C  0.69972339  0.47621061  0.82371163     0.83100
N910        N  0.71988477  0.47269414  0.79974894    -0.79400
C911        C  0.98679122  0.23711682  0.28622712     0.80500
N912        N  0.98818793  0.23745336  0.24195024    -0.77800
C913        C  0.98757631  0.21436472  0.21962945     0.83000
N914        N  0.98532936  0.19046445  0.24203282    -0.77700
C915        C  0.98411336  0.18991619  0.28646318     0.83100
N916        N  0.98506709  0.21337284  0.30825584    -0.79400
C917        C  0.99935074  0.24107507  0.82166085     0.80500
N918        N  0.99865935  0.21708856  0.80179369    -0.77800
C919        C  0.99591293  0.19339948  0.82519014     0.83000
N920        N  0.99401364  0.19391418  0.86935376    -0.77700
C921        C  0.99435495  0.21746009  0.89001470     0.83100
N922        N  0.99700957  0.24098988  0.86602540    -0.79400
O923        O  0.91486413  0.99544306  0.51107435    -0.87900
C924        C  0.56943663  0.06447966  0.62081745     1.12200
O925        O  0.95377674  0.47317155  0.55534291    -1.35700
O926        O  0.54693283  0.06849589  0.50730243    -0.89400
O927        O  0.89461456  0.44592413  0.50333046    -0.90000
O928        O  0.95658864  0.44527909  0.46133893    -0.78800
O929        O  0.98113719  0.03242751  0.51738514    -1.00900
C930        C  0.54300655  0.48110068  0.47378482     1.22200
O931        O  0.98825854  0.44542291  0.55318240    -1.35800
Mn932      Mn  0.98593403  0.47446758  0.60205686     1.82100
O933        O  0.51886149  0.47939137  0.46199403    -0.77900
O934        O  0.57517196  0.04684043  0.50791900    -0.87300
C935        C  0.54138442  0.47680907  0.63394020     1.13300
C936        C  0.56836717  0.06557885  0.49245510     1.08000
O937        O  0.95543572  0.44184481  0.64539665    -0.78900
O938        O  0.51604068  0.00775166  0.55578530    -1.32600
O939        O  0.92858062  0.41379130  0.59384977    -0.98100
C940        C  0.99267084  0.39385949  0.48685225     1.06700
Mn941      Mn  0.55952313  0.01322319  0.55553204     1.48600
O942        O  0.96720369  0.38688233  0.50283805    -0.87300
Mn943      Mn  0.91266695  0.43152872  0.55259637     1.49600
O944        O  0.91600799  0.99292906  0.60936361    -0.91100
C945        C  0.98143085  0.02899255  0.47798332     1.19900
C946        C  0.89517972  0.46667900  0.61947762     1.12000
Mn947      Mn  0.98635170  0.47648265  0.50727940     1.81000
O948        O  0.54632307  0.47872317  0.59485166    -0.96300
Mn949      Mn  0.94821411  0.01118304  0.55920729     1.49300
C950        C  0.89685598  0.47081433  0.49238691     1.08500
Mn951      Mn  0.52983160  0.44609273  0.55241073     1.49900
C952        C  0.99203630  0.39062161  0.61417945     1.11400
O953        O  0.93011720  0.41547675  0.51162733    -1.02100
O954        O  0.57502895  0.04477372  0.60588951    -0.91800
C955        C  0.93443575  0.42075796  0.47264066     1.22700
O956        O  0.54725246  0.48077244  0.51291943    -1.02500
O957        O  0.54855005  0.06819855  0.60556262    -0.89900
O958        O  0.51657356  0.41216203  0.59966925    -0.89500
O959        O  0.89137354  0.44299822  0.60068610    -0.89500
Mn960      Mn  0.51531214  0.04875548  0.55738119     1.47900
O961        O  0.51746667  0.47522227  0.64628772    -0.78000
C962        C  0.93244789  0.41837248  0.63309265     1.15700
O963        O  0.98421585  0.00745616  0.46460827    -0.76700
O964        O  0.98464620  0.00377056  0.64858200    -0.76300
Mn965      Mn  0.94998587  0.40184320  0.55234944     1.51100
O966        O  0.51702373  0.41507136  0.50195455    -0.88700
O967        O  0.98228723  0.03141810  0.59936392    -0.96200
O968        O  0.96650266  0.38519717  0.60053460    -0.91200
C969        C  0.98357777  0.02671937  0.63809983     1.13500
C970        C  0.50634412  0.14900682  0.73517434    -0.01700
C971        C  0.99247745  0.11977090  0.75273068     0.06900
C972        C  0.98129855  0.11481599  0.79556771    -0.07700
C973        C  0.98266309  0.13837988  0.82046987     0.04300
C974        C  0.99540094  0.16764122  0.80214182    -0.14900
C975        C  0.50752239  0.17249114  0.75965835    -0.08200
C976        C  0.98810193  0.09395529  0.72578246     0.05300
C977        C  0.00372352  0.07893409  0.73619995    -0.09400
C978        C  0.00192849  0.05612325  0.70898258     0.00300
C979        C  0.98430558  0.04829579  0.67059939     0.00100
C980        C  0.96791899  0.06269913  0.66127765    -0.12900
C981        C  0.96941987  0.08509755  0.68862717     0.00600
C982        C  0.01952283  0.04231992  0.71999093     0.39900
C983        C  0.95173518  0.09884166  0.67769464     0.36500
C984        C  0.51968576  0.15545697  0.69205272     0.36300
C985        C  0.96983025  0.13134858  0.86388606     0.37000
N986        N  0.03373252  0.03138134  0.72888945    -0.43800
N987        N  0.93762066  0.10988717  0.66881867    -0.44200
N988        N  0.95960293  0.12555490  0.89871260    -0.41600
N989        N  0.53035103  0.16052743  0.65750473    -0.43000
H990        H  0.51805329  0.19477765  0.74530054     0.13100
H991        H  0.97073427  0.09228284  0.80911388     0.09600
H992        H  0.01804047  0.08569589  0.76486424     0.10700
H993        H  0.95393558  0.05650543  0.63227836     0.16500
C994        C  0.02034410  0.36302057  0.70792006    -0.01700
C995        C  0.99888780  0.33206355  0.70894830     0.06900
C996        C  0.97429902  0.32089416  0.68045598    -0.07700
C997        C  0.97147883  0.33950604  0.64982314     0.04300
C998        C  0.99331139  0.37043210  0.64785259    -0.14900
C999        C  0.01748551  0.38186658  0.67743270    -0.08200
C1000       C  0.00188567  0.31039724  0.73793798     0.05300
C1001       C  0.50340794  0.31431203  0.78357626    -0.09400
C1002       C  0.50417777  0.29307530  0.81165252     0.00300
C1003       C  0.00180131  0.26633503  0.79417431     0.00100
C1004       C  0.00155138  0.26334355  0.74829333    -0.12900
C1005       C  0.00211373  0.28515017  0.72041074     0.00600
C1006       C  0.50850174  0.30018213  0.85769923     0.39900
C1007       C  0.00352214  0.28134303  0.67376352     0.36500
C1008       C  0.04580584  0.37574064  0.73701652     0.36300
C1009       C  0.94697184  0.32562236  0.61905919     0.37000
N1010       N  0.51254609  0.30650433  0.89440309    -0.43800
N1011       N  0.00478908  0.27835947  0.63642303    -0.44200
N1012       N  0.92742938  0.31433744  0.59429944    -0.41600
N1013       N  0.06592623  0.38566390  0.76087935    -0.43000
H1014       H  0.03433975  0.40553421  0.67652158     0.13100
H1015       H  0.95756147  0.29717748  0.68136707     0.09600
H1016       H  0.50380009  0.33395051  0.79732848     0.10700
H1017       H  0.00087681  0.24380922  0.73366550     0.16500
C1018       C  0.49382598  0.07666300  0.37702767    -0.01700
C1019       C  0.98207656  0.09492466  0.39033629     0.06900
C1020       C  0.96883446  0.09053380  0.43169859    -0.07700
C1021       C  0.96804137  0.06906620  0.46048952     0.04300
C1022       C  0.98010273  0.05077718  0.44752939    -0.14900
C1023       C  0.49249587  0.05458839  0.40541890    -0.08200
C1024       C  0.98392161  0.11939812  0.36247139     0.05300
C1025       C  0.96723333  0.11220008  0.32363575    -0.09400
C1026       C  0.96687985  0.13471577  0.29817688     0.00300
C1027       C  0.98368201  0.16507134  0.31150608     0.00100
C1028       C  0.50036298  0.17212552  0.35044684    -0.12900
C1029       C  0.50057244  0.14965722  0.37588023     0.00600
C1030       C  0.94766807  0.12584743  0.26021001     0.39900
C1031       C  0.51816243  0.15823463  0.41554304     0.36500
C1032       C  0.50865759  0.08119798  0.33529717     0.36300
C1033       C  0.95461275  0.06652782  0.50297861     0.37000
N1034       N  0.93206862  0.11864995  0.22998851    -0.43800
N1035       N  0.53215195  0.16514476  0.44741146    -0.44200
N1036       N  0.94389070  0.06472626  0.53696868    -0.41600
N1037       N  0.52066222  0.08495842  0.30191105    -0.43000
H1038       H  0.50219368  0.04108916  0.39519648     0.13100
H1039       H  0.95950229  0.10439833  0.44180096     0.09600
H1040       H  0.95381437  0.08885159  0.31388274     0.10700
H1041       H  0.51342564  0.19534115  0.36099335     0.16500
C1042       C  0.96560947  0.33358547  0.39999610    -0.01700
C1043       C  0.99244124  0.33491700  0.38697324     0.06900
C1044       C  0.51996186  0.35804668  0.40272288    -0.07700
C1045       C  0.52090497  0.37841801  0.43382460     0.04300
C1046       C  0.99372086  0.37575035  0.44967950    -0.14900
C1047       C  0.96644491  0.35389299  0.43101010    -0.08200
C1048       C  0.99210041  0.31071477  0.36058570     0.05300
C1049       C  0.48270412  0.30698483  0.31693703    -0.09400
C1050       C  0.48066931  0.28325118  0.29189390     0.00300
C1051       C  0.98841622  0.26282955  0.31069415     0.00100
C1052       C  0.99791580  0.26688412  0.35455347    -0.12900
C1053       C  0.99975343  0.29047559  0.37947011     0.00600
C1054       C  0.46929718  0.27990512  0.24784396     0.39900
C1055       C  0.00872832  0.29297227  0.42478233     0.36500
C1056       C  0.93682154  0.31057426  0.38386011     0.36300
C1057       C  0.55000692  0.40064973  0.44999903     0.37000
N1058       N  0.46013737  0.27735636  0.21258461    -0.43800
N1059       N  0.01590325  0.29503783  0.46107953    -0.44200
N1060       N  0.57328268  0.41845204  0.46313114    -0.41600
N1061       N  0.91373248  0.29221062  0.37090033    -0.43000
H1062       H  0.94543028  0.35180465  0.44172567     0.13100
H1063       H  0.54065520  0.35929620  0.39202623     0.09600
H1064       H  0.47639149  0.32236475  0.30272218     0.10700
H1065       H  0.00398065  0.25157885  0.36965482     0.16500
C1066       C  0.97336160  0.18811521  0.10216582    -0.01700
C1067       C  0.99068638  0.21518817  0.07906448     0.06900
C1068       C  0.50710545  0.24216816  0.10216031    -0.07700
C1069       C  0.50658006  0.24250571  0.14790780     0.04300
C1070       C  0.98932013  0.21526903  0.17129094    -0.14900
C1071       C  0.97304729  0.18830166  0.14792581    -0.08200
C1072       C  0.99200519  0.21596135  0.03071743     0.05300
C1073       C  0.97832580  0.22951307  0.00784192    -0.09400
C1074       C  0.97865816  0.23032954  0.96202338     0.00300
C1075       C  0.99326013  0.21765225  0.93843717     0.00100
C1076       C  0.00707756  0.20425198  0.96167595    -0.12900
C1077       C  0.00670291  0.20346759  0.00737946     0.00600
C1078       C  0.96246597  0.24282606  0.94041149     0.39900
C1079       C  0.52213359  0.19030880  0.02962392     0.36500
C1080       C  0.95500686  0.16008704  0.07955427     0.36300
C1081       C  0.52458739  0.27096162  0.16973253     0.37000
N1082       N  0.94926365  0.25276035  0.92349650    -0.43800
N1083       N  0.53450312  0.17979994  0.04741582    -0.44200
N1084       N  0.53896883  0.29379643  0.18713992    -0.41600
N1085       N  0.94021119  0.13765847  0.06139653    -0.43000
H1086       H  0.95948172  0.16738962  0.16540682     0.13100
H1087       H  0.52047551  0.26297697  0.08429851     0.09600
H1088       H  0.96689320  0.23899885  0.02590912     0.10700
H1089       H  0.51860000  0.19463105  0.94407399     0.16500
C1090       C  0.79457989  0.48261020  0.72422672    -0.01700
C1091       C  0.80693066  0.46476581  0.73713114     0.06900
C1092       C  0.79853833  0.44963254  0.77739486    -0.07700
C1093       C  0.77789384  0.45192928  0.80472460     0.04300
C1094       C  0.76574670  0.47004948  0.79202046    -0.14900
C1095       C  0.77412662  0.48503686  0.75156677    -0.08200
C1096       C  0.82892138  0.46207295  0.70905397     0.05300
C1097       C  0.85906605  0.47644880  0.72191331    -0.09400
C1098       C  0.88099963  0.47696814  0.69420706     0.00300
C1099       C  0.87284892  0.46346160  0.65253392     0.00100
C1100       C  0.84239865  0.44741553  0.64096012    -0.12900
C1101       C  0.82043223  0.44646940  0.66895075     0.00600
C1102       C  0.91113909  0.48961411  0.71058133     0.39900
C1103       C  0.78932752  0.92934221  0.65595166     0.36500
C1104       C  0.80289493  0.99892719  0.68335456     0.36300
C1105       C  0.76823793  0.43412723  0.84422392     0.37000
N1106       N  0.93486843  0.49899866  0.72518518    -0.43800
N1107       N  0.76439887  0.91555410  0.64569088    -0.44200
N1108       N  0.76026426  0.41962946  0.87566865    -0.41600
N1109       N  0.80956436  0.01198501  0.65057546    -0.43000
H1110       H  0.76485177  0.99890260  0.74144466     0.13100
H1111       H  0.80778024  0.43563265  0.78709419     0.09600
H1112       H  0.86548542  0.48756390  0.75346739     0.10700
H1113       H  0.83581417  0.93622850  0.60940971     0.16500
C1114       C  0.64458500  0.49852601  0.78282715    -0.01700
C1115       C  0.62622252  0.47410817  0.75522308     0.06900
C1116       C  0.63152511  0.44995114  0.75185705    -0.07700
C1117       C  0.65492735  0.44996038  0.77473146     0.04300
C1118       C  0.67335532  0.47436467  0.80214725    -0.14900
C1119       C  0.66759863  0.49816517  0.80675602    -0.08200
C1120       C  0.60377506  0.47458315  0.72544137     0.05300
C1121       C  0.60740301  0.47223822  0.68050479    -0.09400
C1122       C  0.58704899  0.47204322  0.65038736     0.00300
C1123       C  0.56273023  0.47538789  0.66502716     0.00100
C1124       C  0.55871212  0.47702374  0.71027593    -0.12900
C1125       C  0.57875931  0.47624335  0.74049520     0.00600
C1126       C  0.59150009  0.46730097  0.60501186     0.39900
C1127       C  0.57261914  0.97609286  0.78660236     0.36500
C1128       C  0.64181496  0.02509733  0.78445977     0.36300
C1129       C  0.65965108  0.42471829  0.76930982     0.37000
N1130       N  0.59507710  0.46310503  0.56887010    -0.43800
N1131       N  0.56765911  0.97595097  0.82357783    -0.44200
N1132       N  0.66348656  0.40454017  0.76485788    -0.41600
N1133       N  0.63960908  0.04641266  0.78548227    -0.43000
H1134       H  0.68206607  0.01714701  0.82728754     0.13100
H1135       H  0.61792471  0.43145792  0.72998460     0.09600
H1136       H  0.62627553  0.47031008  0.66885677     0.10700
H1137       H  0.53975060  0.97864840  0.72216475     0.16500
C1138       C  0.86671107  0.50184695  0.40611427    -0.01700
C1139       C  0.83934896  0.47635104  0.39464799     0.06900
C1140       C  0.83175873  0.44839287  0.41276417    -0.07700
C1141       C  0.85048295  0.44564483  0.44337510     0.04300
C1142       C  0.87743761  0.47150253  0.45674819    -0.14900
C1143       C  0.88541685  0.49928408  0.43689129    -0.08200
C1144       C  0.81719896  0.47869309  0.36652293     0.05300
C1145       C  0.81962758  0.47818066  0.32095618    -0.09400
C1146       C  0.79835129  0.47931246  0.29356080     0.00300
C1147       C  0.77398008  0.48121672  0.31200621     0.00100
C1148       C  0.77214922  0.48210460  0.35799490    -0.12900
C1149       C  0.79332349  0.48077779  0.38505968     0.00600
C1150       C  0.80207343  0.47766716  0.24699385     0.39900
C1151       C  0.79012341  0.48155360  0.43194164     0.36500
C1152       C  0.87562213  0.03097798  0.38763667     0.36300
C1153       C  0.84060127  0.41619338  0.46153508     0.37000
N1154       N  0.80530748  0.47623512  0.20975260    -0.43800
N1155       N  0.78759183  0.98212268  0.46951159    -0.45100
N1156       N  0.83262521  0.39254088  0.47593611    -0.41600
N1157       N  0.88282199  0.05436407  0.37286158    -0.43000
H1158       H  0.90616117  0.01923852  0.44581526     0.13100
H1159       H  0.81066901  0.42875645  0.40376647     0.09600
H1160       H  0.83803888  0.47648171  0.30678418     0.10700
H1161       H  0.75400421  0.48371837  0.37325256     0.16500
C1162       C  0.57570818  0.46346307  0.37417919    -0.01700
C1163       C  0.60649619  0.47751512  0.38488852     0.06900
C1164       C  0.61647038  0.49452693  0.42336635    -0.07700
C1165       C  0.59641787  0.49641800  0.45222769     0.04300
C1166       C  0.56541961  0.48202067  0.44204852    -0.14900
C1167       C  0.55557896  0.46616875  0.40238066    -0.08200
C1168       C  0.62895582  0.47490019  0.35708509     0.05300
C1169       C  0.63349871  0.48508783  0.31359026    -0.09400
C1170       C  0.65653545  0.48586120  0.28792835     0.00300
C1171       C  0.67597537  0.47658487  0.30602506     0.00100
C1172       C  0.67059506  0.46546507  0.34914052    -0.12900
C1173       C  0.64750284  0.46448852  0.37449074     0.00600
C1174       C  0.66013363  0.99736403  0.24385755     0.39900
C1175       C  0.64356357  0.45279270  0.41848316     0.36500
C1176       C  0.56397384  0.44471927  0.33587870     0.36300
C1177       C  0.60871532  0.51351998  0.49187536     0.37000
N1178       N  0.66282696  0.00648103  0.20850521    -0.43800
N1179       N  0.64084356  0.44354102  0.45374532    -0.44200
N1180       N  0.61911430  0.02737603  0.52341482    -0.41600
N1181       N  0.55454019  0.42958494  0.30526268    -0.43000
H1182       H  0.53188390  0.45457911  0.39442988     0.13100
H1183       H  0.64017074  0.50601007  0.43135532     0.09600
H1184       H  0.61955379  0.49337274  0.30002327     0.10700
H1185       H  0.68469071  0.45763829  0.36354086     0.16500
C1186       C  0.70581903  0.46749621  0.09890898    -0.01700
C1187       C  0.73282473  0.48609895  0.07650376     0.06900
C1188       C  0.75889612  0.50459657  0.10037655    -0.07700
C1189       C  0.75836987  0.50469409  0.14625486     0.04300
C1190       C  0.73130255  0.48588474  0.16885824    -0.14900
C1191       C  0.70520133  0.46763805  0.14467815    -0.08200
C1192       C  0.73393627  0.48681103  0.02807248     0.05300
C1193       C  0.72194917  0.50212373  0.00561067    -0.09400
C1194       C  0.72054984  0.50161889  0.95985042     0.00300
C1195       C  0.73109657  0.48522596  0.93572270     0.00100
C1196       C  0.74409163  0.47080178  0.95846535    -0.12900
C1197       C  0.74551374  0.47143787  0.00426159     0.00600
C1198       C  0.70872836  0.01860034  0.93876325     0.39900
C1199       C  0.75794099  0.45528725  0.02624417     0.36500
C1200       C  0.67865328  0.44758285  0.07550829     0.36300
C1201       C  0.78554217  0.52526406  0.16910782     0.37000
N1202       N  0.69935200  0.03237014  0.92201153    -0.43800
N1203       N  0.76787477  0.44233120  0.04391314    -0.44200
N1204       N  0.80733153  0.54185390  0.18731826    -0.41600
N1205       N  0.65695641  0.43157066  0.05664466    -0.43000
H1206       H  0.68435153  0.45297832  0.16159762     0.13100
H1207       H  0.77959684  0.51918222  0.08306950     0.09600
H1208       H  0.71333255  0.01418415  0.02401393     0.10700
H1209       H  0.75230389  0.45816586  0.94057263     0.16500
C1210       C  0.84357696  0.32842788  0.79230086    -0.01700
C1211       C  0.83867124  0.34075109  0.75408519     0.06900
C1212       C  0.80917403  0.33147330  0.74113457    -0.07700
C1213       C  0.78467320  0.30941740  0.76465785     0.04300
C1214       C  0.78954163  0.29614234  0.80190891    -0.14900
C1215       C  0.81906893  0.30651135  0.81606373    -0.08200
C1216       C  0.86363173  0.36089092  0.72455423     0.05300
C1217       C  0.86471946  0.35014360  0.68288110    -0.09400
C1218       C  0.88724228  0.36804068  0.65304016     0.00300
C1219       C  0.90950928  0.39761032  0.66479287     0.00100
C1220       C  0.90857768  0.40819305  0.70691795    -0.12900
C1221       C  0.88579788  0.39020422  0.73662983     0.00600
C1222       C  0.88673690  0.35521226  0.61075076     0.39900
C1223       C  0.88505530  0.40263917  0.77864953     0.36500
C1224       C  0.87346965  0.33662089  0.80631864     0.36300
C1225       C  0.75483665  0.30120369  0.75026490     0.37000
N1226       N  0.88616359  0.34490398  0.57684475    -0.43800
N1227       N  0.88453789  0.41261477  0.81236967    -0.44200
N1228       N  0.73094189  0.29473374  0.73881299    -0.41600
N1229       N  0.89744803  0.34325222  0.81754645    -0.43000
H1230       H  0.82305988  0.29648296  0.84463798     0.13100
H1231       H  0.80532552  0.34109435  0.71195496     0.09600
H1232       H  0.84774615  0.32754240  0.67360564     0.10700
H1233       H  0.92515053  0.43090655  0.71628262     0.16500
C1234       C  0.66850004  0.18207250  0.72750832    -0.01700
C1235       C  0.64982042  0.15320770  0.74502537     0.06900
C1236       C  0.65408841  0.14715420  0.78822802    -0.07700
C1237       C  0.67652042  0.16946784  0.81436497     0.04300
C1238       C  0.69515059  0.19882164  0.79721616    -0.14900
C1239       C  0.69069663  0.20455638  0.75359338    -0.08200
C1240       C  0.62716667  0.12853776  0.71759552     0.05300
C1241       C  0.63319620  0.10632819  0.70299789    -0.09400
C1242       C  0.61426353  0.08445238  0.67302918     0.00300
C1243       C  0.58857896  0.08475633  0.65668137     0.00100
C1244       C  0.58180120  0.10616514  0.67374213    -0.12900
C1245       C  0.60072931  0.12780406  0.70400534     0.00600
C1246       C  0.62263818  0.06279353  0.65921336     0.39900
C1247       C  0.59268306  0.14910489  0.72064744     0.36500
C1248       C  0.66606092  0.18875074  0.68227620     0.36300
C1249       C  0.68051579  0.16081761  0.85769448     0.37000
N1250       N  0.62968439  0.04564537  0.64839073    -0.43800
N1251       N  0.58620710  0.16610566  0.73420192    -0.44200
N1252       N  0.68359577  0.15358126  0.89228425    -0.41600
N1253       N  0.66416772  0.19397695  0.64595773    -0.43000
H1254       H  0.70474732  0.22664626  0.73946647     0.13100
H1255       H  0.64011105  0.12469451  0.80131091     0.09600
H1256       H  0.65336027  0.10666869  0.71412728     0.10700
H1257       H  0.56191575  0.10646640  0.66292402     0.16500
C1258       C  0.84752726  0.32406852  0.31792536    -0.01700
C1259       C  0.84300029  0.33153532  0.36049189     0.06900
C1260       C  0.81410856  0.31668291  0.37858845    -0.07700
C1261       C  0.78988384  0.29411442  0.35537407     0.04300
C1262       C  0.79446216  0.28588675  0.31302763    -0.14900
C1263       C  0.82334458  0.30149650  0.29454087    -0.08200
C1264       C  0.86810679  0.35428957  0.38730886     0.05300
C1265       C  0.88184200  0.38479523  0.37575833    -0.09400
C1266       C  0.90426955  0.40698567  0.40219044     0.00300
C1267       C  0.91318167  0.39859369  0.44091099     0.00100
C1268       C  0.89959998  0.36798354  0.45191070    -0.12900
C1269       C  0.87745580  0.34591174  0.42543822     0.00600
C1270       C  0.91619920  0.43813014  0.39041637     0.39900
C1271       C  0.86467681  0.31478177  0.43805114     0.36500
C1272       C  0.87699117  0.33847066  0.29833112     0.36300
C1273       C  0.76056521  0.28068744  0.37543572     0.37000
N1274       N  0.92562096  0.46309096  0.38105692    -0.43800
N1275       N  0.85450030  0.28985661  0.44819583    -0.44200
N1276       N  0.73716526  0.27020489  0.39174222    -0.41600
N1277       N  0.90064419  0.35001119  0.28271471    -0.43000
H1278       H  0.82726945  0.29549927  0.26217116     0.13100
H1279       H  0.81052749  0.32277910  0.41111794     0.09600
H1280       H  0.87441138  0.39130124  0.34668805     0.10700
H1281       H  0.90617535  0.36123996  0.48160714     0.16500
C1282       C  0.67734315  0.16965986  0.38370132    -0.01700
C1283       C  0.65308810  0.14450498  0.36393688     0.06900
C1284       C  0.65338574  0.14065642  0.31852809    -0.07700
C1285       C  0.67704299  0.16197172  0.29255733     0.04300
C1286       C  0.70074633  0.18819607  0.31215278    -0.14900
C1287       C  0.70060214  0.19107377  0.35798612    -0.08200
C1288       C  0.62761355  0.12226513  0.39092790     0.05300
C1289       C  0.61142830  0.13224931  0.41595044    -0.09400
C1290       C  0.59137082  0.11404480  0.44842845     0.00300
C1291       C  0.58664026  0.08479191  0.45552053     0.00100
C1292       C  0.60116807  0.07410000  0.42801079    -0.12900
C1293       C  0.62164280  0.09253605  0.39613990     0.00600
C1294       C  0.57805549  0.12697963  0.47612500     0.39900
C1295       C  0.63749658  0.08098767  0.37119211     0.36500
C1296       C  0.67918719  0.17381108  0.43062279     0.36300
C1297       C  0.67640576  0.15566677  0.24641209     0.37000
N1298       N  0.56757902  0.13741960  0.49856363    -0.43800
N1299       N  0.65009376  0.07157347  0.35128976    -0.44200
N1300       N  0.67572316  0.15018816  0.20954491    -0.41600
N1301       N  0.68061092  0.17709289  0.46819066    -0.43000
H1302       H  0.71870610  0.21027563  0.37431740     0.13100
H1303       H  0.63501487  0.12097499  0.30334043     0.09600
H1304       H  0.61586252  0.15508629  0.41178194     0.10700
H1305       H  0.59723133  0.05148490  0.43227183     0.16500
C1306       C  0.77285987  0.25570069  0.00625042    -0.01700
C1307       C  0.74645166  0.24028714  0.03134710     0.06900
C1308       C  0.71857488  0.22630483  0.01026834    -0.07700
C1309       C  0.71661779  0.22750413  0.96470370     0.04300
C1310       C  0.74310588  0.24284733  0.93925801    -0.14900
C1311       C  0.77101831  0.25686068  0.96066250    -0.08200
C1312       C  0.74728093  0.23947590  0.07979112     0.05300
C1313       C  0.75695793  0.26623524  0.10310567    -0.09400
C1314       C  0.75719047  0.26640839  0.14889610     0.00300
C1315       C  0.74764221  0.23930057  0.17221607     0.00100
C1316       C  0.73783308  0.21249287  0.14868416    -0.12900
C1317       C  0.73763599  0.21240378  0.10284768     0.00600
C1318       C  0.76604474  0.29449807  0.17088441     0.39900
C1319       C  0.72808158  0.18443749  0.08009540     0.36500
C1320       C  0.80208648  0.27004303  0.02653516     0.36300
C1321       C  0.68707559  0.21399223  0.94551721     0.37000
N1322       N  0.77308030  0.31701373  0.18844083    -0.43800
N1323       N  0.72047478  0.16207476  0.06174364    -0.44200
N1324       N  0.66334626  0.20317906  0.93032486    -0.41600
N1325       N  0.82550264  0.28153143  0.04281139    -0.43000
H1326       H  0.79155053  0.26854497  0.94173193     0.13100
H1327       H  0.69822367  0.21487141  0.02966693     0.09600
H1328       H  0.76391561  0.28699489  0.08537523     0.10700
H1329       H  0.73074904  0.19162045  0.16611445     0.16500
C1330       C  0.72556480  0.71336544  0.28703790     0.80500
N1331       N  0.74791135  0.73676352  0.30923173    -0.77800
C1332       C  0.77005312  0.76081424  0.28800753     0.83000
N1333       N  0.76998755  0.76133083  0.24362184    -0.77700
C1334       C  0.74777632  0.73830545  0.22068809     0.83100
N1335       N  0.72566883  0.71435103  0.24256256    -0.79400
C1336       C  0.71967748  0.72359802  0.82297652     0.80500
N1337       N  0.72013693  0.72234799  0.86732319    -0.77800
C1338       C  0.74255443  0.74473154  0.89080941     0.83000
N1339       N  0.76498094  0.76861648  0.86941389    -0.77700
C1340       C  0.76461237  0.77051888  0.82512709     0.83100
N1341       N  0.74200020  0.74792244  0.80214316    -0.79400
C1342       C  0.74986540  0.98173079  0.28531367     0.80500
N1343       N  0.72517045  0.97922053  0.30550169    -0.77800
C1344       C  0.70260134  0.97914595  0.28236842     0.83000
N1345       N  0.70486951  0.98139890  0.23807106    -0.77700
C1346       C  0.72953002  0.98430342  0.21725751     0.83100
N1347       N  0.75184794  0.98439421  0.24104132    -0.79400
C1348       C  0.74374946  0.97321083  0.81922506     0.80500
N1349       N  0.74748398  0.97747966  0.86321074    -0.77800
C1350       C  0.72761336  0.98154976  0.88748138     0.83000
N1351       N  0.70369618  0.98077011  0.86742702    -0.77700
C1352       C  0.69970213  0.97616458  0.82369129     0.83100
N1353       N  0.71986778  0.97265253  0.79973374    -0.79400
C1354       C  0.98692270  0.73716709  0.28622565     0.80500
N1355       N  0.98833413  0.73751499  0.24194984    -0.77800
C1356       C  0.98772399  0.71442873  0.21962440     0.83000
N1357       N  0.98546275  0.69052022  0.24202162    -0.77700
C1358       C  0.98423142  0.68996118  0.28645082     0.83100
N1359       N  0.98518493  0.71341577  0.30824926    -0.79400
C1360       C  0.99940014  0.74110636  0.82165222     0.80500
N1361       N  0.99869169  0.71711120  0.80178701    -0.77800
C1362       C  0.99595920  0.69342966  0.82518805     0.83000
N1363       N  0.99409224  0.69396067  0.86935484    -0.77700
C1364       C  0.99445116  0.71751605  0.89001368     0.83100
N1365       N  0.99709113  0.74103790  0.86601986    -0.79400
O1366       O  0.91488639  0.49546960  0.51107370    -0.87900
C1367       C  0.56946184  0.56447386  0.62081355     1.12200
O1368       O  0.95376706  0.97315915  0.55533248    -1.35700
O1369       O  0.54695481  0.56848431  0.50729657    -0.89400
O1370       O  0.89460642  0.94589960  0.50331386    -0.90000
O1371       O  0.95659440  0.94528306  0.46132474    -0.78800
O1372       O  0.98116012  0.53243447  0.51738100    -1.00900
C1373       C  0.54301188  0.98112118  0.47377783     1.22200
O1374       O  0.98826368  0.94542728  0.55316581    -1.35800
Mn1375     Mn  0.98592766  0.97446226  0.60204628     1.82100
O1376       O  0.51886413  0.97940523  0.46198656    -0.77900
O1377       O  0.57518768  0.54682293  0.50792166    -0.87300
C1378       C  0.54138549  0.97682398  0.63393081     1.13300
C1379       C  0.56838633  0.56556204  0.49244997     1.08000
O1380       O  0.95543531  0.94183246  0.64537759    -0.78900
O1381       O  0.51605171  0.50774779  0.55579295    -1.32600
O1382       O  0.92858510  0.91377854  0.59382711    -0.98100
C1383       C  0.99269817  0.89387028  0.48684248     1.06700
Mn1384     Mn  0.55953027  0.51320736  0.55553789     1.48600
O1385       O  0.96722739  0.88688701  0.50282070    -0.87300
Mn1386     Mn  0.91266422  0.93150892  0.55257592     1.49600
O1387       O  0.91603197  0.49296443  0.60936655    -0.91100
C1388       C  0.98145087  0.52899502  0.47798000     1.19900
C1389       C  0.89515841  0.96664030  0.61946557     1.12000
Mn1390     Mn  0.98634878  0.97648659  0.50727038     1.81000
O1391       O  0.54632212  0.97873936  0.59484233    -0.96300
Mn1392     Mn  0.94823736  0.51120456  0.55920692     1.49300
C1393       C  0.89683994  0.97078815  0.49238187     1.08500
Mn1394     Mn  0.52984206  0.94610863  0.55240396     1.49900
C1395       C  0.99205460  0.89063269  0.61416145     1.11400
O1396       O  0.93012390  0.91546718  0.51160299    -1.02100
O1397       O  0.57504661  0.54476109  0.60589218    -0.91800
C1398       C  0.93444649  0.92075585  0.47261819     1.22700
O1399       O  0.54725685  0.98079040  0.51291232    -1.02500
O1400       O  0.54857908  0.56819777  0.60555673    -0.89900
O1401       O  0.51659071  0.91217681  0.59966471    -0.89500
O1402       O  0.89135940  0.94296444  0.60066648    -0.89500
Mn1403     Mn  0.51533705  0.54875849  0.55738374     1.47900
O1404       O  0.51746474  0.97522948  0.64628069    -0.78000
C1405       C  0.93245127  0.91835844  0.63307040     1.15700
O1406       O  0.98422769  0.50745295  0.46460988    -0.76700
O1407       O  0.98466397  0.50378632  0.64858460    -0.76300
Mn1408     Mn  0.94999897  0.90184156  0.55232707     1.51100
O1409       O  0.51704414  0.91508594  0.50195224    -0.88700
O1410       O  0.98231290  0.53143660  0.59936186    -0.96200
O1411       O  0.96652030  0.88520334  0.60051388    -0.91200
C1412       C  0.98360079  0.52673760  0.63809900     1.13500
C1413       C  0.50633676  0.64900271  0.73515817    -0.01700
C1414       C  0.99248395  0.61978165  0.75273204     0.06900
C1415       C  0.98130895  0.61483308  0.79557154    -0.07700
C1416       C  0.98268527  0.63840332  0.82047211     0.04300
C1417       C  0.99543106  0.66766385  0.80214010    -0.14900
C1418       C  0.50753305  0.67249624  0.75963922    -0.08200
C1419       C  0.98810676  0.59396309  0.72578892     0.05300
C1420       C  0.00373698  0.57894990  0.73620123    -0.09400
C1421       C  0.00194904  0.55614367  0.70898034     0.00300
C1422       C  0.98432425  0.54831223  0.67059879     0.00100
C1423       C  0.96792904  0.56270734  0.66128196    -0.12900
C1424       C  0.96942316  0.58510151  0.68863507     0.00600
C1425       C  0.01955391  0.54235065  0.71998198     0.39900
C1426       C  0.95173197  0.59883911  0.67770610     0.36500
C1427       C  0.51964062  0.65543567  0.69201170     0.36300
C1428       C  0.96985613  0.63138071  0.86389090     0.37000
N1429       N  0.03377242  0.53142083  0.72887530    -0.43800
N1430       N  0.93761202  0.60987923  0.66883302    -0.44200
N1431       N  0.95963174  0.62559469  0.89871958    -0.41600
N1432       N  0.53027467  0.66049229  0.65744325    -0.43000
H1433       H  0.51804814  0.69477602  0.74526062     0.13100
H1434       H  0.97074049  0.59230091  0.80912176     0.09600
H1435       H  0.01805655  0.58571582  0.76486284     0.10700
H1436       H  0.95394460  0.55651091  0.63228363     0.16500
C1437       C  0.02037150  0.86303030  0.70788901    -0.01700
C1438       C  0.99890927  0.83207549  0.70892840     0.06900
C1439       C  0.97431402  0.82090797  0.68044965    -0.07700
C1440       C  0.97149175  0.83951971  0.64981923     0.04300
C1441       C  0.99333145  0.87044367  0.64783437    -0.14900
C1442       C  0.01751265  0.88187612  0.67740192    -0.08200
C1443       C  0.00190682  0.81041012  0.73791908     0.05300
C1444       C  0.50347147  0.81434054  0.78356395    -0.09400
C1445       C  0.50425299  0.79310884  0.81163710     0.00300
C1446       C  0.00183774  0.76635894  0.79416167     0.00100
C1447       C  0.00157715  0.76335964  0.74828114    -0.12900
C1448       C  0.00213128  0.78516060  0.72039511     0.00600
C1449       C  0.50863543  0.80024154  0.85767304     0.39900
C1450       C  0.00352912  0.78134586  0.67374792     0.36500
C1451       C  0.04583829  0.87574740  0.73697592     0.36300
C1452       C  0.94697202  0.82563699  0.61907591     0.37000
N1453       N  0.51272483  0.80658354  0.89436712    -0.43800
N1454       N  0.00478781  0.77835577  0.63640750    -0.44200
N1455       N  0.92741831  0.81435195  0.59433415    -0.41600
N1456       N  0.06596170  0.88566632  0.76083314    -0.43000
H1457       H  0.03437177  0.90554202  0.67648212     0.13100
H1458       H  0.95757180  0.79719292  0.68137114     0.09600
H1459       H  0.50390485  0.83399940  0.79731495     0.10700
H1460       H  0.00090213  0.74382430  0.73365626     0.16500
C1461       C  0.49384975  0.57666259  0.37702757    -0.01700
C1462       C  0.98212252  0.59493284  0.39031883     0.06900
C1463       C  0.96888404  0.59055152  0.43168266    -0.07700
C1464       C  0.96808412  0.56908372  0.46047919     0.04300
C1465       C  0.98012980  0.55078081  0.44752098    -0.14900
C1466       C  0.49251121  0.55458531  0.40542070    -0.08200
C1467       C  0.98398602  0.61941519  0.36245481     0.05300
C1468       C  0.96732202  0.61223045  0.32359667    -0.09400
C1469       C  0.96698654  0.63475517  0.29813702     0.00300
C1470       C  0.98378293  0.66510647  0.31148852     0.00100
C1471       C  0.50043124  0.67215204  0.35046877    -0.12900
C1472       C  0.50061983  0.64967618  0.37590775     0.00600
C1473       C  0.94779747  0.62589979  0.26014576     0.39900
C1474       C  0.51817718  0.65824386  0.41560125     0.36500
C1475       C  0.50867342  0.58118483  0.33529260     0.36300
C1476       C  0.95467050  0.56656413  0.50297516     0.37000
N1477       N  0.93221579  0.61871225  0.22990475    -0.43800
N1478       N  0.53213904  0.66514870  0.44749539    -0.44200
N1479       N  0.94396227  0.56477894  0.53697165    -0.41600
N1480       N  0.52067099  0.58493449  0.30190247    -0.43000
H1481       H  0.50219555  0.54107451  0.39519554     0.13100
H1482       H  0.95956352  0.60442648  0.44178420     0.09600
H1483       H  0.95390688  0.58888513  0.31382633     0.10700
H1484       H  0.51348601  0.69536424  0.36103388     0.16500
C1485       C  0.96567181  0.83356469  0.40003629    -0.01700
C1486       C  0.99251610  0.83492723  0.38700043     0.06900
C1487       C  0.52001304  0.85806903  0.40273899    -0.07700
C1488       C  0.52094361  0.87843687  0.43383594     0.04300
C1489       C  0.99376077  0.87575732  0.44968451    -0.14900
C1490       C  0.96649012  0.85387100  0.43103811    -0.08200
C1491       C  0.99220060  0.81074154  0.36060053     0.05300
C1492       C  0.48276771  0.80699269  0.31697042    -0.09400
C1493       C  0.48075499  0.78327337  0.29191535     0.00300
C1494       C  0.98854340  0.76287425  0.31069669     0.00100
C1495       C  0.99809915  0.76696178  0.35452906    -0.12900
C1496       C  0.99992558  0.79054603  0.37945212     0.00600
C1497       C  0.46936811  0.77991521  0.24787288     0.39900
C1498       C  0.00896283  0.79307802  0.42473826     0.36500
C1499       C  0.93688984  0.81052500  0.38392468     0.36300
C1500       C  0.55004267  0.90069008  0.44999131     0.37000
N1501       N  0.46019691  0.77735594  0.21261912    -0.43800
N1502       N  0.01618925  0.79517199  0.46101391    -0.44200
N1503       N  0.57331678  0.91850757  0.46310873    -0.41600
N1504       N  0.91380577  0.79213845  0.37098364    -0.43000
H1505       H  0.94546740  0.85175988  0.44176184     0.13100
H1506       H  0.54071363  0.85934130  0.39202592     0.09600
H1507       H  0.47642642  0.82235486  0.30277074     0.10700
H1508       H  0.00421580  0.75168720  0.36960234     0.16500
C1509       C  0.97353283  0.68819942  0.10215302    -0.01700
C1510       C  0.99086177  0.71527596  0.07906245     0.06900
C1511       C  0.50731357  0.74224742  0.10217368    -0.07700
C1512       C  0.50677799  0.74257951  0.14792098     0.04300
C1513       C  0.98948003  0.71534172  0.17128739    -0.14900
C1514       C  0.97321128  0.68837826  0.14791234    -0.08200
C1515       C  0.99217644  0.71605640  0.03071625     0.05300
C1516       C  0.97847670  0.72959314  0.00785567    -0.09400
C1517       C  0.97878733  0.73039914  0.96203741     0.00300
C1518       C  0.99338765  0.71772633  0.93843648     0.00100
C1519       C  0.00722979  0.70434521  0.96166022    -0.12900
C1520       C  0.00687641  0.70357098  0.00736416     0.00600
C1521       C  0.96257148  0.74287612  0.94044266     0.39900
C1522       C  0.52229276  0.69036808  0.02959914     0.36500
C1523       C  0.95517841  0.66017577  0.07953061     0.36300
C1524       C  0.52479489  0.77102852  0.16975810     0.37000
N1525       N  0.94934997  0.75279459  0.92354260    -0.43800
N1526       N  0.53465395  0.67984576  0.04737867    -0.44200
N1527       N  0.53918385  0.79385783  0.18717579    -0.41600
N1528       N  0.94038247  0.63775104  0.06136407    -0.43000
H1529       H  0.95964138  0.66746344  0.16538473     0.13100
H1530       H  0.52069886  0.76305607  0.08431872     0.09600
H1531       H  0.96704165  0.73907141  0.02593459     0.10700
H1532       H  0.51873450  0.69468780  0.94405217     0.16500
C1533       C  0.79453834  0.98253938  0.72420425    -0.01700
C1534       C  0.80689508  0.96470141  0.73711280     0.06900
C1535       C  0.79851523  0.94958021  0.77738632    -0.07700
C1536       C  0.77787667  0.95188217  0.80472237     0.04300
C1537       C  0.76572208  0.96999507  0.79201353    -0.14900
C1538       C  0.77409074  0.98497113  0.75154996    -0.08200
C1539       C  0.82888889  0.96201278  0.70903835     0.05300
C1540       C  0.85903510  0.97640791  0.72189047    -0.09400
C1541       C  0.88097216  0.97693296  0.69418724     0.00300
C1542       C  0.87282378  0.96341344  0.65252223     0.00100
C1543       C  0.84237236  0.94734812  0.64095632    -0.12900
C1544       C  0.82040215  0.94639593  0.66894572     0.00600
C1545       C  0.91111369  0.98959782  0.71055969     0.39900
C1546       C  0.78935848  0.42943568  0.65594610     0.36500
C1547       C  0.80294675  0.49900796  0.68338561     0.36300
C1548       C  0.76823673  0.93409397  0.84423522     0.37000
N1549       N  0.93484422  0.99899727  0.72516603    -0.43800
N1550       N  0.76443047  0.41566422  0.64567645    -0.44200
N1551       N  0.76027711  0.91960747  0.87569147    -0.41600
N1552       N  0.80962400  0.51207308  0.65061275    -0.43000
H1553       H  0.76489238  0.49897329  0.74146574     0.13100
H1554       H  0.80776414  0.93558732  0.78709029     0.09600
H1555       H  0.86545285  0.98753345  0.75343740     0.10700
H1556       H  0.83583881  0.43630584  0.60940669     0.16500
C1557       C  0.64457218  0.99850410  0.78285019    -0.01700
C1558       C  0.62622955  0.97411367  0.75519124     0.06900
C1559       C  0.63154602  0.94996834  0.75176612    -0.07700
C1560       C  0.65494035  0.94996122  0.77463792     0.04300
C1561       C  0.67334500  0.97433549  0.80211574    -0.14900
C1562       C  0.66757594  0.99812455  0.80677967    -0.08200
C1563       C  0.60378856  0.97460701  0.72541592     0.05300
C1564       C  0.60742622  0.97228711  0.68047573    -0.09400
C1565       C  0.58706787  0.97208768  0.65036382     0.00300
C1566       C  0.56273747  0.97540987  0.66501236     0.00100
C1567       C  0.55871307  0.97702736  0.71026330    -0.12900
C1568       C  0.57876230  0.97624559  0.74047737     0.00600
C1569       C  0.59152400  0.96735724  0.60498526     0.39900
C1570       C  0.57262758  0.47611913  0.78661929     0.36500
C1571       C  0.64183532  0.52512482  0.78437991     0.36300
C1572       C  0.65968057  0.92473435  0.76914614     0.37000
N1573       N  0.59510473  0.96316869  0.56884172    -0.43800
N1574       N  0.56767683  0.47599981  0.82359415    -0.44200
N1575       N  0.66353016  0.90456936  0.76463542    -0.41600
N1576       N  0.63963462  0.54644387  0.78535692    -0.43000
H1577       H  0.68210460  0.51720838  0.82721939     0.13100
H1578       H  0.61796358  0.93149862  0.72984826     0.09600
H1579       H  0.62630661  0.97037524  0.66882054     0.10700
H1580       H  0.53975846  0.47866261  0.72217165     0.16500
C1581       C  0.86671720  0.00181413  0.40607269    -0.01700
C1582       C  0.83933623  0.97632725  0.39464802     0.06900
C1583       C  0.83172233  0.94837476  0.41280998    -0.07700
C1584       C  0.85044331  0.94562533  0.44342433     0.04300
C1585       C  0.87742028  0.97147494  0.45674805    -0.14900
C1586       C  0.88542140  0.99924889  0.43684899    -0.08200
C1587       C  0.81719159  0.97867665  0.36652219     0.05300
C1588       C  0.81962572  0.97817178  0.32095573    -0.09400
C1589       C  0.79835336  0.97930911  0.29355890     0.00300
C1590       C  0.77398265  0.98121489  0.31200299     0.00100
C1591       C  0.77214712  0.98209616  0.35799187    -0.12900
C1592       C  0.79331571  0.98076080  0.38505789     0.00600
C1593       C  0.80207875  0.97766654  0.24699236     0.39900
C1594       C  0.79011015  0.98152872  0.43193992     0.36500
C1595       C  0.87559666  0.53101540  0.38771289     0.36300
C1596       C  0.84053358  0.91618527  0.46164884     0.37000
N1597       N  0.80531591  0.97623519  0.20975191    -0.43800
N1598       N  0.78760959  0.48215446  0.46951328    -0.45100
N1599       N  0.83253443  0.89254225  0.47610393    -0.41600
N1600       N  0.88278119  0.55440459  0.37296286    -0.43000
H1601       H  0.90614047  0.51928125  0.44589010     0.13100
H1602       H  0.81061647  0.92874602  0.40384794     0.09600
H1603       H  0.83803723  0.97647249  0.30678512     0.10700
H1604       H  0.75400205  0.98370990  0.37324928     0.16500
C1605       C  0.57573808  0.96352205  0.37416575    -0.01700
C1606       C  0.60652611  0.97758390  0.38488023     0.06900
C1607       C  0.61649204  0.99459651  0.42335846    -0.07700
C1608       C  0.59643142  0.99647225  0.45222058     0.04300
C1609       C  0.56543258  0.98205900  0.44204098    -0.14900
C1610       C  0.55560032  0.96621210  0.40236840    -0.08200
C1611       C  0.62899219  0.97497144  0.35708803     0.05300
C1612       C  0.63352216  0.98513158  0.31357936    -0.09400
C1613       C  0.65655206  0.98589027  0.28791794     0.00300
C1614       C  0.67600188  0.97663199  0.30603089     0.00100
C1615       C  0.67063831  0.96554491  0.34916433    -0.12900
C1616       C  0.64755032  0.96457876  0.37451230     0.00600
C1617       C  0.66013905  0.49737486  0.24388966     0.39900
C1618       C  0.64362436  0.95290924  0.41851981     0.36500
C1619       C  0.56401261  0.94478621  0.33585612     0.36300
C1620       C  0.60872153  0.01357490  0.49186954     0.37000
N1621       N  0.66285119  0.50652525  0.20855525    -0.43800
N1622       N  0.64091394  0.94367946  0.45379436    -0.44200
N1623       N  0.61911282  0.52732031  0.52341971    -0.41600
N1624       N  0.55458673  0.92966056  0.30523043    -0.43000
H1625       H  0.53190562  0.95461419  0.39441441     0.13100
H1626       H  0.64019236  0.00609045  0.43134920     0.09600
H1627       H  0.61956928  0.99340217  0.29999710     0.10700
H1628       H  0.68474142  0.95773218  0.36357918     0.16500
C1629       C  0.70578291  0.96743270  0.09892480    -0.01700
C1630       C  0.73278355  0.98602094  0.07649923     0.06900
C1631       C  0.75886376  0.00452292  0.10035152    -0.07700
C1632       C  0.75835095  0.00464062  0.14622951     0.04300
C1633       C  0.73128797  0.98584825  0.16885326    -0.14900
C1634       C  0.70517838  0.96759543  0.14469370    -0.08200
C1635       C  0.73388053  0.98671966  0.02806763     0.05300
C1636       C  0.72188899  0.00202870  0.00560777    -0.09400
C1637       C  0.72048945  0.00152503  0.95984795     0.00300
C1638       C  0.73104223  0.98513807  0.93571764     0.00100
C1639       C  0.74403632  0.97071244  0.95845922    -0.12900
C1640       C  0.74545742  0.97134653  0.00425562     0.00600
C1641       C  0.70879392  0.51869737  0.93876130     0.39900
C1642       C  0.75788467  0.95519560  0.02623734     0.36500
C1643       C  0.67860901  0.94751285  0.07554628     0.36300
C1644       C  0.78553269  0.02521398  0.16905972     0.37000
N1645       N  0.69942251  0.53247004  0.92200485    -0.43800
N1646       N  0.76781777  0.94223896  0.04390639    -0.44200
N1647       N  0.80733023  0.04180644  0.18725067    -0.41600
N1648       N  0.65690541  0.93149473  0.05670112    -0.43000
H1649       H  0.68433211  0.95294757  0.16162953     0.13100
H1650       H  0.77956071  0.01909735  0.08302839     0.09600
H1651       H  0.71339323  0.51428016  0.02401543     0.10700
H1652       H  0.75225114  0.95807931  0.94056530     0.16500
C1653       C  0.84360918  0.82839743  0.79227727    -0.01700
C1654       C  0.83869653  0.84072339  0.75407066     0.06900
C1655       C  0.80919815  0.83145157  0.74113575    -0.07700
C1656       C  0.78470144  0.80939807  0.76466674     0.04300
C1657       C  0.78957619  0.79612080  0.80190931    -0.14900
C1658       C  0.81910522  0.80648371  0.81604873    -0.08200
C1659       C  0.86365111  0.86086499  0.72453620     0.05300
C1660       C  0.86473570  0.85012035  0.68285985    -0.09400
C1661       C  0.88725321  0.86802192  0.65301555     0.00300
C1662       C  0.90951705  0.89759227  0.66476972     0.00100
C1663       C  0.90858797  0.90817202  0.70689798    -0.12900
C1664       C  0.88581358  0.89017892  0.73661267     0.00600
C1665       C  0.88674516  0.85519843  0.61072092     0.39900
C1666       C  0.88507211  0.90260927  0.77863697     0.36500
C1667       C  0.87350420  0.83658480  0.80627545     0.36300
C1668       C  0.75486263  0.80118801  0.75028984     0.37000
N1669       N  0.88617020  0.84489521  0.57681001    -0.43800
N1670       N  0.88455449  0.91258033  0.81236091    -0.44200
N1671       N  0.73096611  0.79472078  0.73885067    -0.41600
N1672       N  0.89748460  0.84321145  0.81748642    -0.43000
H1673       H  0.82309994  0.79645199  0.84461563     0.13100
H1674       H  0.80534546  0.84107550  0.71196287     0.09600
H1675       H  0.84776396  0.82751845  0.67358452     0.10700
H1676       H  0.92515848  0.93088622  0.71626345     0.16500
C1677       C  0.66852448  0.68207044  0.72751649    -0.01700
C1678       C  0.64985905  0.65319697  0.74501716     0.06900
C1679       C  0.65414991  0.64712889  0.78820195    -0.07700
C1680       C  0.67658757  0.66943705  0.81433798     0.04300
C1681       C  0.69519744  0.69879965  0.79720854    -0.14900
C1682       C  0.69072415  0.70454885  0.75360320    -0.08200
C1683       C  0.62720087  0.62853251  0.71758412     0.05300
C1684       C  0.63320951  0.60630197  0.70301828    -0.09400
C1685       C  0.61427534  0.58442862  0.67304822     0.00300
C1686       C  0.58860756  0.58475278  0.65667246     0.00100
C1687       C  0.58184951  0.60618337  0.67370058    -0.12900
C1688       C  0.60078089  0.62782275  0.70395982     0.00600
C1689       C  0.62263270  0.56275210  0.65925831     0.39900
C1690       C  0.59275593  0.64914966  0.72055852     0.36500
C1691       C  0.66607088  0.68876352  0.68229690     0.36300
C1692       C  0.68061395  0.66077397  0.85764173     0.37000
N1693       N  0.62966682  0.54559119  0.64845535    -0.43800
N1694       N  0.58629617  0.66617207  0.73407241    -0.44200
N1695       N  0.68372070  0.65352897  0.89221048    -0.41600
N1696       N  0.66416615  0.69400192  0.64598840    -0.43000
H1697       H  0.70476222  0.72664622  0.73949121     0.13100
H1698       H  0.64018662  0.62466232  0.80127020     0.09600
H1699       H  0.65336056  0.60662505  0.71417093     0.10700
H1700       H  0.56197742  0.60650197  0.66285871     0.16500
C1701       C  0.84754270  0.82408283  0.31787819    -0.01700
C1702       C  0.84302409  0.83153907  0.36045562     0.06900
C1703       C  0.81413818  0.81667451  0.37857074    -0.07700
C1704       C  0.78991142  0.79410202  0.35536487     0.04300
C1705       C  0.79448382  0.78587665  0.31301357    -0.14900
C1706       C  0.82335976  0.80150116  0.29450708    -0.08200
C1707       C  0.86813351  0.85429364  0.38726647     0.05300
C1708       C  0.88184413  0.88480249  0.37574522    -0.09400
C1709       C  0.90426929  0.90699148  0.40218153     0.00300
C1710       C  0.91320068  0.89859479  0.44087902     0.00100
C1711       C  0.89964507  0.86798169  0.45184770    -0.12900
C1712       C  0.87750662  0.84591111  0.42536677     0.00600
C1713       C  0.91617721  0.93813768  0.39043718     0.39900
C1714       C  0.86475826  0.81477737  0.43793955     0.36500
C1715       C  0.87699802  0.83851004  0.29825486     0.36300
C1716       C  0.76059608  0.78067454  0.37543640     0.37000
N1717       N  0.92558270  0.96309979  0.38110095    -0.43800
N1718       N  0.85460705  0.78984888  0.44804934    -0.44200
N1719       N  0.73719918  0.77019600  0.39175162    -0.41600
N1720       N  0.90064359  0.85007232  0.28261294    -0.43000
H1721       H  0.82727971  0.79551064  0.26212970     0.13100
H1722       H  0.81056294  0.82276612  0.41110682     0.09600
H1723       H  0.87439617  0.89131118  0.34669579     0.10700
H1724       H  0.90623535  0.86123504  0.48152688     0.16500
C1725       C  0.67732924  0.66966567  0.38368416    -0.01700
C1726       C  0.65310366  0.64448412  0.36392000     0.06900
C1727       C  0.65343676  0.64061097  0.31852210    -0.07700
C1728       C  0.67710078  0.66192621  0.29256069     0.04300
C1729       C  0.70077157  0.68817665  0.31215143    -0.14900
C1730       C  0.70059225  0.69108084  0.35797592    -0.08200
C1731       C  0.62762909  0.62223674  0.39090389     0.05300
C1732       C  0.61140378  0.63220159  0.41586922    -0.09400
C1733       C  0.59134941  0.61400120  0.44835359     0.00300
C1734       C  0.58665965  0.58476855  0.45550699     0.00100
C1735       C  0.60122720  0.57409217  0.42804905    -0.12900
C1736       C  0.62170170  0.59252658  0.39617685     0.00600
C1737       C  0.57799607  0.62692453  0.47599543     0.39900
C1738       C  0.63760287  0.58100069  0.37129605     0.36500
C1739       C  0.67914183  0.67384030  0.43060055     0.36300
C1740       C  0.67651147  0.65558966  0.24643454     0.37000
N1741       N  0.56748986  0.63735498  0.49839356    -0.43800
N1742       N  0.65023964  0.57160589  0.35144824    -0.44200
N1743       N  0.67586832  0.65008459  0.20958417    -0.41600
N1744       N  0.68054020  0.67713896  0.46816473    -0.43000
H1745       H  0.71867265  0.71030294  0.37430520     0.13100
H1746       H  0.63509127  0.62090769  0.30333670     0.09600
H1747       H  0.61580605  0.65502451  0.41165523     0.10700
H1748       H  0.59732404  0.55149244  0.43235403     0.16500
C1749       C  0.77289362  0.75570880  0.00625447    -0.01700
C1750       C  0.74648632  0.74026553  0.03134589     0.06900
C1751       C  0.71861149  0.72625360  0.01026179    -0.07700
C1752       C  0.71665513  0.72745028  0.96469703     0.04300
C1753       C  0.74314270  0.74282198  0.93925605    -0.14900
C1754       C  0.77105310  0.75686630  0.96066654    -0.08200
C1755       C  0.74731300  0.73945264  0.07978981     0.05300
C1756       C  0.75698127  0.76620986  0.10310583    -0.09400
C1757       C  0.75721413  0.76638202  0.14889558     0.00300
C1758       C  0.74767050  0.73927441  0.17221390     0.00100
C1759       C  0.73787037  0.71246873  0.14868121    -0.12900
C1760       C  0.73767625  0.71238118  0.10284481     0.00600
C1761       C  0.76606814  0.79447142  0.17088483     0.39900
C1762       C  0.72813571  0.68441790  0.08009128     0.36500
C1763       C  0.80211914  0.77008518  0.02654439     0.36300
C1764       C  0.68711202  0.71390310  0.94550665     0.37000
N1765       N  0.77310515  0.81698697  0.18844257    -0.43800
N1766       N  0.72054038  0.66205793  0.06173794    -0.44200
N1767       N  0.66338187  0.70306134  0.93031131    -0.41600
N1768       N  0.82553419  0.78160161  0.04282530    -0.43000
H1769       H  0.79158541  0.76857357  0.94174098     0.13100
H1770       H  0.69826026  0.71479797  0.02965642     0.09600
H1771       H  0.76393378  0.78696905  0.08537694     0.10700
H1772       H  0.73079305  0.69159750  0.16611071     0.16500
loop_ 
_geom_bond_atom_site_label_1 
_geom_bond_atom_site_label_2 
_geom_bond_distance 
_geom_bond_site_symmetry_2 
_ccdc_geom_bond_type 
C1            N2   1.359       .  A
C1            N6   1.360       .  A
C1          C400   1.496       .  S
N2            C3   1.355       .  A
C3            N4   1.356       .  A
C3          C376   1.485       .  S
N4            C5   1.359       .  A
C5            N6   1.361       .  A
C5          C429   1.482       .  S
C7            N8   1.357       .  A
C7           N12   1.360       .  A
C7          C352   1.493       .  S
N8            C9   1.358       .  A
C9           N10   1.359       .  A
C9          C424   1.485       .  S
N10          C11   1.357       .  A
C11          N12   1.359       .  A
C11         C328   1.480       .  S
C13          N14   1.360       .  A
C13          N18   1.358       .  A
C13         C261   1.498       .  S
N14          C15   1.360       .  A
C15          N16   1.358       .  A
C15         C285   1.496       .  S
N16          C17   1.360       .  A
C17          N18   1.359       .  A
C17         C304   1.481       .  S
C19          N20   1.360       .  A
C19          N24   1.355       .  A
C19         C208   1.479       .  S
N20          C21   1.362       .  A
C21          N22   1.359       .  A
C21         C309   1.485       .  S
N22          C23   1.355       .  A
C23          N24   1.354       .  A
C23         C232   1.470       .  S
C25          N26   1.354       .  A
C25          N30   1.357       .  A
C25         C165   1.484       .  S
N26          C27   1.356       .  A
C27          N28   1.360       .  A
C27         C184   1.479       .  S
N28          C29   1.359       .  A
C29          N30   1.357       .  A
C29         C141   1.479       .  S
C31          N32   1.359       .  A
C31          N36   1.360       .  A
C31         C117   1.497       .  S
N32          C33   1.357       .  A
C33          N34   1.354       .  A
C33          C88   1.489       .  S
N34          C35   1.358       .  A
C35          N36   1.361       .  A
C35         C189   1.481       .  S
O37         Mn63   2.094   1_565  S
O37         C507   1.272       .  A
C38         C357   1.494       .  S
C38          O71   1.272       .  A
C38          O68   1.269       .  A
O39         Mn46   2.164       .  S
O39         Mn57   2.129       .  S
O39         Mn61   2.171       .  S
O39        Mn506   2.116       .  S
O40         Mn74   2.088       .  S
O40          C50   1.270       .  A
O41         Mn57   2.091       .  S
O41          C64   1.271       .  A
O42         Mn61   2.106       .  S
O42          C69   1.252       .  A
O43         Mn63   1.960       .  S
O43        Mn960   1.957       .  S
O43          C59   1.218       .  S
C44         C280   1.489       .  S
C44          O47   1.256       .  A
C44          O70   1.217       .  S
O45         Mn46   2.157       .  S
O45         Mn79   2.117       .  S
O45         Mn61   2.164       .  S
O45        Mn951   2.126       .  S
Mn46         O51   2.095       .  S
Mn46        O961   2.101       .  S
Mn46        O521   2.097       .  S
Mn46       O1381   2.162       .  S
O47        Mn947   2.119   1_455  S
O48         Mn55   2.086       .  S
O48          C50   1.270       .  A
C49         C237   1.483       .  S
C49          O75   1.251       .  A
C49          O62   1.214       .  S
C50         C405   1.483       .  S
O51          C76   1.253       .  A
O52         Mn55   2.114       .  S
O52         Mn74   2.128       .  S
O52       Mn1375   2.162   1_445  S
O52       Mn1390   2.160   1_445  S
O53         Mn57   1.961       .  S
O53         Mn79   1.969       .  S
O53          C76   1.219       .  S
C54         C160   1.487       .  S
C54          O56   1.271       .  A
C54         O966   1.267       .  A
Mn55         O68   2.084       .  S
Mn55        O513   1.955   1_545  S
Mn55        O505   1.959   1_545  S
O56         Mn79   2.086       .  S
Mn57         O73   2.087       .  S
Mn57         O67   1.949       .  S
O58         Mn63   2.102   1_565  S
O58         C503   1.273       .  A
C59         C136   1.484       .  S
C59          O77   1.254       .  A
C60         C213   1.476       .  S
C60          O73   1.270       .  A
C60         O501   1.273       .  A
Mn61        O933   2.119       .  S
Mn61        O520   2.103       .  S
Mn61       O1381   2.160       .  S
O62         Mn65   1.948       .  S
O62        Mn498   1.959       .  S
Mn63        O482   2.116   1_545  S
Mn63         O81   1.961       .  S
C64         C256   1.492       .  S
C64         O480   1.272       .  A
Mn65         O72   2.097       .  S
Mn65         O80   2.075       .  S
Mn65        O931   2.126   1_455  S
Mn65         O70   1.958       .  S
C66         C112   1.486       .  S
C66          O82   1.271       .  A
C66         O958   1.272       .  A
O67         Mn79   1.951       .  S
O67          C69   1.217       .  S
C69         C381   1.480       .  S
O70        Mn498   1.955       .  S
O71         Mn74   2.095       .  S
O72         C952   1.272   1_455  A
Mn74        O929   1.957   1_455  S
Mn74        O967   1.954   1_455  S
O75        Mn932   2.101   1_455  S
C76         C333   1.486       .  S
O77        Mn504   2.103   1_545  S
O78        Mn489   2.097   1_545  S
O78          C83   1.250       .  A
Mn79         O82   2.087       .  S
O80         C940   1.267   1_455  A
O81        Mn960   1.954       .  S
O81          C83   1.216       .  S
C83          C93   1.476       .  S
C84          C89   1.396       .  A
C84         C971   1.408   1_455  A
C84          C98   1.445       .  S
C85          C90   1.480       .  S
C85          C86   1.400       .  A
C85         C970   1.408       .  A
C86          C87   1.402       .  A
C86         H105   1.085       .  S
C87          C88   1.420       .  A
C87          C99   1.444       .  S
C88         C975   1.407       .  A
C89         C974   1.407   1_455  A
C89         H104   1.084       .  S
C90          C91   1.403       .  A
C90          C95   1.409       .  A
C91          C92   1.403       .  A
C91         H106   1.085       .  S
C92          C93   1.414       .  A
C92          C96   1.444       .  S
C93          C94   1.403       .  A
C94          C95   1.394       .  A
C94         H107   1.085       .  S
C95          C97   1.445       .  S
C96         N100   1.157       .  T
C97         N101   1.157       .  T
C98         N103   1.157       .  T
C99         N102   1.158       .  T
C108        C109   1.412       .  A
C108        C113   1.404       .  A
C108        C122   1.443       .  S
C109        C114   1.490       .  S
C109        C110   1.402       .  A
C110        C111   1.397       .  A
C110        H129   1.085       .  S
C111        C112   1.416       .  A
C111        C123   1.445       .  S
C112        C113   1.408       .  A
C113        H128   1.085       .  S
C114        C119   1.410       .  A
C114       C1001   1.403       .  A
C115        C116   1.404       .  A
C115       C1000   1.403       .  A
C115        H130   1.085       .  S
C116       C1003   1.420       .  A
C116        C120   1.443       .  S
C117        C118   1.410       .  A
C117       C1002   1.420       .  A
C118        C119   1.396       .  A
C118        H131   1.084       .  S
C119        C121   1.445       .  S
C120        N124   1.157       .  T
C121        N125   1.157       .  T
C122        N127   1.157       .  T
C123        N126   1.157       .  T
C132        C137   1.402       .  A
C132       C1019   1.409       .  A
C132        C146   1.443   1_655  S
C133        C138   1.482       .  S
C133        C134   1.399       .  A
C133       C1018   1.410       .  A
C134        C135   1.396       .  A
C134        H153   1.085       .  S
C135        C136   1.419       .  A
C135        C147   1.445       .  S
C136       C1023   1.406       .  A
C137       C1022   1.406       .  A
C137        H152   1.085   1_655  S
C138        C139   1.403       .  A
C138       C1029   1.410       .  A
C139        C140   1.402       .  A
C139        H154   1.085       .  S
C140        C141   1.414       .  A
C140        C144   1.444       .  S
C141       C1028   1.404       .  A
C142        C143   1.396       .  A
C142       C1027   1.404   1_455  A
C142        H155   1.085       .  S
C143       C1024   1.410   1_455  A
C143        C145   1.444       .  S
C144        N148   1.157       .  T
C145        N149   1.157       .  T
C146        N151   1.157       .  T
C147        N150   1.157       .  T
C156        C157   1.407       .  A
C156        C161   1.395       .  A
C156        C170   1.444       .  S
C157        C162   1.476       .  S
C157       C1044   1.399       .  A
C158        C159   1.397       .  A
C158       C1043   1.399   1_455  A
C158        H177   1.086       .  S
C159       C1046   1.420   1_455  A
C159        C171   1.443       .  S
C160        C161   1.408       .  A
C160       C1045   1.420       .  A
C161        H176   1.083       .  S
C162        C167   1.408       .  A
C162       C1049   1.399       .  A
C163        C164   1.399       .  A
C163       C1048   1.399       .  A
C163        H178   1.085       .  S
C164       C1051   1.419       .  A
C164        C168   1.444       .  S
C165        C166   1.406       .  A
C165       C1050   1.419       .  A
C166        C167   1.395       .  A
C166        H179   1.085       .  S
C167        C169   1.445       .  S
C168        N172   1.157       .  T
C169        N173   1.157       .  T
C170        N175   1.157       .  T
C171        N174   1.157       .  T
C180        C181   1.409       .  A
C180        C185   1.398       .  A
C180        C194   1.444       .  S
C181        C186   1.478       .  S
C181       C1068   1.400       .  A
C182        C183   1.398       .  A
C182       C1067   1.400   1_455  A
C182        H201   1.085       .  S
C183       C1070   1.417   1_455  A
C183        C195   1.445       .  S
C184        C185   1.404       .  A
C184       C1069   1.417       .  A
C185        H200   1.084       .  S
C186        C187   1.401       .  A
C186        C191   1.408       .  A
C187        C188   1.400   1_554  A
C187        H202   1.085       .  S
C188        C189   1.414       .  A
C188        C192   1.443       .  S
C189        C190   1.406       .  A
C190        C191   1.397   1_556  A
C190       H1089   1.085       .  S
C191       C1079   1.444       .  S
C192        N196   1.157       .  T
C193       C1077   1.444       .  S
C193        N197   1.157       .  T
C194        N199   1.157       .  T
C195        N198   1.157       .  T
H203       C1076   1.085       .  S
C204        C205   1.410       .  A
C204        C209   1.398       .  A
C204        C661   1.445       .  S
C205        C210   1.481       .  S
C205        C206   1.402       .  A
C206        C207   1.402       .  A
C206        H225   1.085       .  S
C207        C208   1.412       .  A
C207        C219   1.443       .  S
C208        C209   1.404       .  A
C209        H667   1.085       .  S
C210        C211   1.402       .  A
C210        C215   1.409       .  A
C211        C212   1.401       .  A
C211        H226   1.085       .  S
C212        C213   1.410       .  A
C212        C216   1.440       .  S
C213        C214   1.404       .  A
C214        C215   1.399       .  A
C214        H670   1.085       .  S
C215        C660   1.444       .  S
C216        N220   1.156       .  T
C217        C658   1.444       .  S
C217        N221   1.157       .  T
C218        C647   1.445       .  S
C218        N223   1.157   1_565  T
C219        N222   1.157       .  T
H224        C652   1.085       .  S
H227        C657   1.085       .  S
C228        C229   1.412       .  A
C228        C233   1.402       .  A
C228        C685   1.445       .  S
C229        C234   1.482       .  S
C229        C230   1.403       .  A
C230        C231   1.394       .  A
C230        H249   1.084       .  S
C231        C232   1.409       .  A
C231        C243   1.445       .  S
C232        C233   1.403       .  A
C233        H691   1.085       .  S
C234        C235   1.399       .  A
C234        C239   1.410       .  A
C235        C236   1.392       .  A
C235        H250   1.085       .  S
C236        C237   1.419       .  A
C236        C240   1.446       .  S
C237        C238   1.406       .  A
C238        C239   1.402       .  A
C238        H694   1.084       .  S
C239        C684   1.443       .  S
C240        N244   1.157       .  T
C241        C682   1.443       .  S
C241        N245   1.157       .  T
C242        C671   1.445   1_545  S
C242        N247   1.157       .  T
C243        N246   1.157       .  T
H248        C676   1.085   1_545  S
H251        C681   1.084       .  S
C252        C253   1.406       .  A
C252        C257   1.400       .  A
C252        C709   1.444       .  S
C253        C258   1.481       .  S
C253        C254   1.400       .  A
C254        C255   1.401       .  A
C254        H273   1.085       .  S
C255        C256   1.419       .  A
C255        C267   1.444       .  S
C256        C257   1.410       .  A
C257        H715   1.083       .  S
C258        C259   1.399       .  A
C258        C263   1.406       .  A
C259        C260   1.404       .  A
C259        H274   1.085       .  S
C260        C261   1.423       .  A
C260        C264   1.444       .  S
C261        C262   1.410       .  A
C262        C263   1.398       .  A
C262        H275   1.084       .  S
C263        C265   1.444       .  S
C264        N268   1.157       .  T
C265        N712   1.157       .  T
C266        C695   1.444       .  S
C266        N271   1.157       .  T
C267        N270   1.157       .  T
N269        C708   1.157       .  T
H272        C700   1.083   1_545  S
C276        C277   1.414       .  A
C276        C281   1.407       .  A
C276        C290   1.443       .  S
C277        C282   1.494       .  S
C277        C278   1.401       .  A
C278        C279   1.398       .  A
C278        H297   1.085       .  S
C279        C280   1.418       .  A
C279        C291   1.444       .  S
C280        C281   1.406       .  A
C281        H296   1.085       .  S
C282        C283   1.404       .  A
C282        C287   1.413       .  A
C283        C284   1.406       .  A
C283        H298   1.085       .  S
C284        C285   1.420       .  A
C284        C731   1.444       .  S
C285        C286   1.407       .  A
C286        C287   1.399       .  A
C286        H299   1.085       .  S
C287        C289   1.444       .  S
C288        C727   1.444       .  S
C288        N292   1.157   1_565  T
C289        N293   1.157       .  T
C290        N295   1.157       .  T
C291        N737   1.158       .  T
N294        C734   1.158       .  T
C300        C301   1.408       .  A
C300        C305   1.399       .  A
C300        C314   1.444       .  S
C301        C306   1.480       .  S
C301        C302   1.401       .  A
C302        C303   1.402       .  A
C302        H321   1.085       .  S
C303        C304   1.415       .  A
C303        C315   1.444       .  S
C304        C305   1.405       .  A
C305        H320   1.085       .  S
C306        C307   1.400       .  A
C306        C311   1.408       .  A
C307        C308   1.400   1_554  A
C307        H765   1.085       .  S
C308        C309   1.417       .  A
C308        C755   1.444       .  S
C309        C310   1.407       .  A
C310        C311   1.401   1_556  A
C310        H323   1.084       .  S
C311        C313   1.444       .  S
C312        C751   1.444       .  S
C312        N316   1.157       .  T
C313        N317   1.157       .  T
C314        N319   1.157       .  T
C315        N318   1.157       .  T
H322        C750   1.085       .  S
C324        C325   1.410       .  A
C324        C329   1.401       .  A
C324        C338   1.444       .  S
C325        C330   1.484       .  S
C325        C326   1.403       .  A
C326        C327   1.400       .  A
C326        H345   1.085       .  S
C327        C328   1.413       .  A
C327        C339   1.444       .  S
C328        C329   1.405       .  A
C329        H344   1.085       .  S
C330        C331   1.400       .  A
C330        C335   1.410       .  A
C331        C332   1.397       .  A
C331        H346   1.085       .  S
C332        C333   1.418       .  A
C332        C336   1.445       .  S
C333        C334   1.408       .  A
C334        C335   1.402       .  A
C334        H347   1.085       .  S
C335        C337   1.443       .  S
C336        N340   1.157       .  T
C337        N341   1.157       .  T
C338        N343   1.157       .  T
C339        N342   1.157       .  T
C348        C349   1.408       .  A
C348        C353   1.399       .  A
C348        C362   1.445       .  S
C349        C354   1.481       .  S
C349        C350   1.399       .  A
C350        C351   1.401       .  A
C350        H369   1.085       .  S
C351        C352   1.421       .  A
C351        C363   1.444       .  S
C352        C353   1.409       .  A
C353        H368   1.084       .  S
C354        C355   1.398       .  A
C354        C359   1.407       .  A
C355        C356   1.399       .  A
C355        H370   1.085       .  S
C356        C357   1.422       .  A
C356        C360   1.444       .  S
C357        C358   1.411       .  A
C358        C359   1.400       .  A
C358        H371   1.084       .  S
C359        C361   1.444       .  S
C360        N364   1.157       .  T
C361        N365   1.157       .  T
C362        N367   1.157       .  T
C363        N366   1.157       .  T
C372        C373   1.408       .  A
C372        C377   1.401       .  A
C372        C386   1.443       .  S
C373        C378   1.483       .  S
C373        C374   1.401       .  A
C374        C375   1.399       .  A
C374        H393   1.085       .  S
C375        C376   1.417       .  A
C375        C387   1.445       .  S
C376        C377   1.407       .  A
C377        H392   1.085       .  S
C378        C379   1.404       .  A
C378        C383   1.408       .  A
C379        C380   1.404       .  A
C379        H394   1.085       .  S
C380        C381   1.413       .  A
C380        C384   1.444       .  S
C381        C382   1.405       .  A
C382        C383   1.396       .  A
C382        H395   1.085       .  S
C383        C385   1.445       .  S
C384        N388   1.157       .  T
C385        N389   1.157       .  T
C386        N391   1.157       .  T
C387        N390   1.157       .  T
C396        C397   1.408       .  A
C396        C401   1.393       .  A
C396        C410   1.446       .  S
C397        C402   1.484       .  S
C397        C398   1.402       .  A
C398        C399   1.405       .  A
C398        H417   1.085       .  S
C399        C400   1.421       .  A
C399        C411   1.443       .  S
C400        C401   1.409       .  A
C401        H416   1.083       .  S
C402        C403   1.404       .  A
C402        C407   1.409       .  A
C403        C404   1.399       .  A
C403        H418   1.085       .  S
C404        C405   1.414       .  A
C404        C408   1.444       .  S
C405        C406   1.407       .  A
C406        C407   1.398       .  A
C406        H419   1.083       .  S
C407        C409   1.444       .  S
C408        N412   1.157       .  T
C409        N413   1.157       .  T
C410        N415   1.157       .  T
C411        N414   1.157       .  T
C420        C421   1.409       .  A
C420        C425   1.399   1_554  A
C420        C434   1.444       .  S
C421        C426   1.482       .  S
C421        C422   1.401       .  A
C422        C423   1.399   1_554  A
C422        H441   1.085       .  S
C423        C424   1.417       .  A
C423        C435   1.444       .  S
C424        C425   1.407       .  A
C425        H440   1.085       .  S
C426        C427   1.401       .  A
C426        C431   1.409       .  A
C427        C428   1.399       .  A
C427        H442   1.085       .  S
C428        C429   1.415       .  A
C428        C432   1.444       .  S
C429        C430   1.405       .  A
C430        C431   1.400       .  A
C430        H443   1.084       .  S
C431        C433   1.444       .  S
C432        N436   1.157       .  T
C433        N437   1.157       .  T
C434        N439   1.157       .  T
C435        N438   1.157       .  T
C444        N445   1.359       .  A
C444        N449   1.360       .  A
C444        C843   1.496       .  S
N445        C446   1.355       .  A
C446        N447   1.356       .  A
C446        C819   1.485       .  S
N447        C448   1.359       .  A
C448        N449   1.361       .  A
C448        C872   1.482       .  S
C450        N451   1.357       .  A
C450        N455   1.360       .  A
C450        C795   1.492       .  S
N451        C452   1.358       .  A
C452        N453   1.359       .  A
C452        C867   1.485       .  S
N453        C454   1.357       .  A
C454        N455   1.359       .  A
C454        C771   1.480       .  S
C456        N457   1.360       .  A
C456        N461   1.358       .  A
C456        C704   1.498       .  S
N457        C458   1.360       .  A
C458        N459   1.358       .  A
C458        C728   1.496       .  S
N459        C460   1.360       .  A
C460        N461   1.359       .  A
C460        C747   1.481       .  S
C462        N463   1.360       .  A
C462        N467   1.355       .  A
C462        C651   1.479       .  S
N463        C464   1.362       .  A
C464        N465   1.359       .  A
C464        C752   1.485       .  S
N465        C466   1.355       .  A
C466        N467   1.354       .  A
C466        C675   1.470       .  S
C468        N469   1.354       .  A
C468        N473   1.357       .  A
C468        C608   1.484       .  S
N469        C470   1.356       .  A
C470        N471   1.360       .  A
C470        C627   1.479       .  S
N471        C472   1.359       .  A
C472        N473   1.357       .  A
C472        C584   1.479       .  S
C474        N475   1.359       .  A
C474        N479   1.360       .  A
C474        C560   1.497       .  S
N475        C476   1.357       .  A
C476        N477   1.354       .  A
C476        C531   1.489       .  S
N477        C478   1.358       .  A
C478        N479   1.361       .  A
C478        C632   1.481       .  S
O480       Mn506   2.094       .  S
C481        C800   1.494       .  S
C481        O514   1.272       .  A
C481        O511   1.269       .  A
O482       Mn489   2.164       .  S
O482       Mn500   2.129       .  S
O482       Mn504   2.170       .  S
O483       Mn517   2.088       .  S
O483        C493   1.270       .  A
O484       Mn500   2.091       .  S
O484        C507   1.271       .  A
O485       Mn504   2.106       .  S
O485        C512   1.252       .  A
O486      Mn1403   1.957       .  S
O486       Mn506   1.960       .  S
O486        C502   1.218       .  S
C487        C723   1.489       .  S
C487        O490   1.256       .  A
C487        O513   1.217       .  S
O488      Mn1394   2.126       .  S
O488       Mn489   2.157       .  S
O488       Mn522   2.117       .  S
O488       Mn504   2.164       .  S
Mn489      O1404   2.101       .  S
Mn489       O494   2.095       .  S
Mn489       O938   2.162   1_565  S
O490      Mn1390   2.119   1_455  S
O491       Mn498   2.086       .  S
O491        C493   1.270       .  A
C492        C680   1.483       .  S
C492        O518   1.251       .  A
C492        O505   1.214       .  S
C493        C848   1.483       .  S
O494        C519   1.253       .  A
O495       Mn932   2.162   1_455  S
O495       Mn498   2.114       .  S
O495       Mn517   2.128       .  S
O495       Mn947   2.160   1_455  S
O496       Mn500   1.960       .  S
O496       Mn522   1.969       .  S
O496        C519   1.219       .  S
C497        C603   1.487       .  S
C497       O1409   1.267       .  A
C497        O499   1.271       .  A
Mn498       O511   2.084       .  S
O499       Mn522   2.085       .  S
Mn500       O516   2.087       .  S
Mn500       O510   1.949       .  S
O501       Mn506   2.102       .  S
C502        C579   1.484       .  S
C502        O520   1.254       .  A
C503        C656   1.476       .  S
C503        O516   1.270       .  A
Mn504      O1376   2.119       .  S
Mn504       O938   2.160   1_565  S
O505       Mn508   1.948       .  S
Mn506       O524   1.961       .  S
C507        C699   1.492       .  S
Mn508       O515   2.097       .  S
Mn508       O523   2.075       .  S
Mn508      O1374   2.126   1_455  S
Mn508       O513   1.958       .  S
C509        C555   1.486       .  S
C509       O1401   1.272       .  A
C509        O525   1.271       .  A
O510       Mn522   1.952       .  S
O510        C512   1.217       .  S
C512        C824   1.480       .  S
O514       Mn517   2.095       .  S
O515       C1395   1.272   1_455  A
Mn517      O1372   1.957   1_455  S
Mn517      O1410   1.954   1_455  S
O518      Mn1375   2.101   1_455  S
C519        C776   1.485       .  S
O521        C526   1.250       .  A
Mn522       O525   2.087       .  S
O523       C1383   1.267   1_455  A
O524      Mn1403   1.954       .  S
O524        C526   1.216       .  S
C526        C536   1.476       .  S
C527       C1414   1.408   1_455  A
C527        C532   1.396       .  A
C527        C541   1.445       .  S
C528        C533   1.481       .  S
C528       C1413   1.408       .  A
C528        C529   1.400       .  A
C529        C530   1.402       .  A
C529        H548   1.085       .  S
C530        C531   1.420       .  A
C530        C542   1.444       .  S
C531       C1418   1.407       .  A
C532       C1417   1.407   1_455  A
C532        H547   1.084       .  S
C533        C534   1.403       .  A
C533        C538   1.409       .  A
C534        C535   1.403       .  A
C534        H549   1.085       .  S
C535        C536   1.414       .  A
C535        C539   1.444       .  S
C536        C537   1.403       .  A
C537        C538   1.394       .  A
C537        H550   1.085       .  S
C538        C540   1.445       .  S
C539        N543   1.157       .  T
C540        N544   1.157       .  T
C541        N546   1.157       .  T
C542        N545   1.158       .  T
C551        C552   1.412       .  A
C551        C556   1.404       .  A
C551        C565   1.443       .  S
C552        C557   1.490       .  S
C552        C553   1.402       .  A
C553        C554   1.397       .  A
C553        H572   1.085       .  S
C554        C555   1.416       .  A
C554        C566   1.445       .  S
C555        C556   1.408       .  A
C556        H571   1.085       .  S
C557       C1444   1.403       .  A
C557        C562   1.410       .  A
C558       C1443   1.403       .  A
C558        C559   1.404       .  A
C558        H573   1.085       .  S
C559       C1446   1.420       .  A
C559        C563   1.443       .  S
C560       C1445   1.420       .  A
C560        C561   1.410       .  A
C561        C562   1.396       .  A
C561        H574   1.084       .  S
C562        C564   1.445       .  S
C563        N567   1.157       .  T
C564        N568   1.157       .  T
C565        N570   1.157       .  T
C566        N569   1.157       .  T
C575       C1462   1.409       .  A
C575        C580   1.402       .  A
C575        C589   1.443   1_655  S
C576        C581   1.482       .  S
C576       C1461   1.410       .  A
C576        C577   1.399       .  A
C577        C578   1.396       .  A
C577        H596   1.085       .  S
C578        C579   1.419       .  A
C578        C590   1.445       .  S
C579       C1466   1.406       .  A
C580       C1465   1.406       .  A
C580        H595   1.085   1_655  S
C581        C582   1.403       .  A
C581       C1472   1.410       .  A
C582        C583   1.402       .  A
C582        H597   1.085       .  S
C583        C584   1.414       .  A
C583        C587   1.444       .  S
C584       C1471   1.404       .  A
C585       C1470   1.404   1_455  A
C585        C586   1.396       .  A
C585        H598   1.085       .  S
C586       C1467   1.410   1_455  A
C586        C588   1.444       .  S
C587        N591   1.157       .  T
C588        N592   1.157       .  T
C589        N594   1.157       .  T
C590        N593   1.157       .  T
C599        C600   1.407       .  A
C599        C604   1.395       .  A
C599        C613   1.444       .  S
C600        C605   1.476       .  S
C600       C1487   1.399       .  A
C601       C1486   1.399   1_455  A
C601        C602   1.397       .  A
C601        H620   1.086       .  S
C602       C1489   1.420   1_455  A
C602        C614   1.443       .  S
C603       C1488   1.420       .  A
C603        C604   1.408       .  A
C604        H619   1.083       .  S
C605       C1492   1.399       .  A
C605        C610   1.408       .  A
C606       C1491   1.399       .  A
C606        C607   1.399       .  A
C606        H621   1.085       .  S
C607       C1494   1.419       .  A
C607        C611   1.444       .  S
C608       C1493   1.419       .  A
C608        C609   1.406       .  A
C609        C610   1.395       .  A
C609        H622   1.085       .  S
C610        C612   1.445       .  S
C611        N615   1.157       .  T
C612        N616   1.157       .  T
C613        N618   1.157       .  T
C614        N617   1.157       .  T
C623        C624   1.409       .  A
C623        C628   1.398       .  A
C623        C637   1.444       .  S
C624        C629   1.478       .  S
C624       C1511   1.400       .  A
C625       C1510   1.400   1_455  A
C625        C626   1.398       .  A
C625        H644   1.085       .  S
C626       C1513   1.417   1_455  A
C626        C638   1.445       .  S
C627       C1512   1.417       .  A
C627        C628   1.404       .  A
C628        H643   1.084       .  S
C629        C630   1.401       .  A
C629        C634   1.408       .  A
C630        C631   1.400   1_554  A
C630        H645   1.085       .  S
C631        C632   1.414       .  A
C631        C635   1.443       .  S
C632        C633   1.406       .  A
C633        C634   1.397   1_556  A
C633       H1532   1.085       .  S
C634       C1522   1.444       .  S
C635        N639   1.157       .  T
C636       C1520   1.444       .  S
C636        N640   1.157       .  T
C637        N642   1.157       .  T
C638        N641   1.157       .  T
H646       C1519   1.085       .  S
C647        C648   1.410       .  A
C647        C652   1.398       .  A
C648        C653   1.481       .  S
C648        C649   1.402       .  A
C649        C650   1.402       .  A
C649        H668   1.085       .  S
C650        C651   1.412       .  A
C650        C662   1.443       .  S
C651        C652   1.405       .  A
C653        C654   1.401       .  A
C653        C658   1.409       .  A
C654        C655   1.401       .  A
C654        H669   1.085       .  S
C655        C656   1.410       .  A
C655        C659   1.440       .  S
C656        C657   1.404       .  A
C657        C658   1.399       .  A
C659        N663   1.156       .  T
C660        N664   1.157       .  T
C661        N666   1.157       .  T
C662        N665   1.157       .  T
C671        C672   1.412       .  A
C671        C676   1.402       .  A
C672        C677   1.482       .  S
C672        C673   1.403       .  A
C673        C674   1.394       .  A
C673        H692   1.084       .  S
C674        C675   1.409       .  A
C674        C686   1.445       .  S
C675        C676   1.403       .  A
C677        C678   1.399       .  A
C677        C682   1.410       .  A
C678        C679   1.392       .  A
C678        H693   1.085       .  S
C679        C680   1.419       .  A
C679        C683   1.446       .  S
C680        C681   1.406       .  A
C681        C682   1.402       .  A
C683        N687   1.157       .  T
C684        N688   1.157       .  T
C685        N690   1.157       .  T
C686        N689   1.157       .  T
C695        C696   1.406   1_545  A
C695        C700   1.400   1_545  A
C696        C701   1.481       .  S
C696        C697   1.400       .  A
C697        C698   1.401       .  A
C697        H716   1.085       .  S
C698        C699   1.419       .  A
C698        C710   1.444       .  S
C699        C700   1.410       .  A
C701        C702   1.399       .  A
C701        C706   1.406       .  A
C702        C703   1.404       .  A
C702        H717   1.085       .  S
C703        C704   1.423       .  A
C703        C707   1.444       .  S
C704        C705   1.410       .  A
C705        C706   1.398       .  A
C705        H718   1.084       .  S
C706        C708   1.444       .  S
C707        N711   1.157       .  T
C709        N714   1.157       .  T
C710        N713   1.157       .  T
C719        C720   1.414       .  A
C719        C724   1.407       .  A
C719        C733   1.443       .  S
C720        C725   1.494       .  S
C720        C721   1.401       .  A
C721        C722   1.398       .  A
C721        H740   1.085   1_565  S
C722        C723   1.418       .  A
C722        C734   1.444   1_565  S
C723        C724   1.406       .  A
C724        H739   1.085       .  S
C725        C726   1.404       .  A
C725        C730   1.413       .  A
C726        C727   1.406       .  A
C726        H741   1.085       .  S
C727        C728   1.420       .  A
C728        C729   1.407       .  A
C729        C730   1.399       .  A
C729        H742   1.085       .  S
C730        C732   1.444       .  S
C731        N735   1.157       .  T
C732        N736   1.157       .  T
C733        N738   1.157       .  T
C743        C744   1.408       .  A
C743        C748   1.399       .  A
C743        C757   1.444       .  S
C744        C749   1.480       .  S
C744        C745   1.401   1_565  A
C745        C746   1.402       .  A
C745        H764   1.085       .  S
C746        C747   1.415   1_545  A
C746        C758   1.444       .  S
C747        C748   1.405       .  A
C748        H763   1.085       .  S
C749        C750   1.400   1_565  A
C749        C754   1.408       .  A
C750        C751   1.400   1_554  A
C751        C752   1.417   1_545  A
C752        C753   1.407       .  A
C753        C754   1.401   1_556  A
C753        H766   1.084       .  S
C754        C756   1.444       .  S
C755        N759   1.157       .  T
C756        N760   1.157       .  T
C757        N762   1.157       .  T
C758        N761   1.157       .  T
C767        C768   1.410       .  A
C767        C772   1.401       .  A
C767        C781   1.444       .  S
C768        C773   1.484       .  S
C768        C769   1.403       .  A
C769        C770   1.400       .  A
C769        H788   1.085       .  S
C770        C771   1.413       .  A
C770        C782   1.444       .  S
C771        C772   1.405       .  A
C772        H787   1.085       .  S
C773        C774   1.400       .  A
C773        C778   1.410       .  A
C774        C775   1.397       .  A
C774        H789   1.085       .  S
C775        C776   1.418       .  A
C775        C779   1.445       .  S
C776        C777   1.408       .  A
C777        C778   1.402       .  A
C777        H790   1.085       .  S
C778        C780   1.443       .  S
C779        N783   1.157       .  T
C780        N784   1.157       .  T
C781        N786   1.157       .  T
C782        N785   1.157       .  T
C791        C792   1.408       .  A
C791        C796   1.399       .  A
C791        C805   1.445       .  S
C792        C797   1.481       .  S
C792        C793   1.399       .  A
C793        C794   1.401       .  A
C793        H812   1.085       .  S
C794        C795   1.421       .  A
C794        C806   1.444       .  S
C795        C796   1.409       .  A
C796        H811   1.084       .  S
C797        C798   1.398       .  A
C797        C802   1.407       .  A
C798        C799   1.399       .  A
C798        H813   1.085       .  S
C799        C800   1.422       .  A
C799        C803   1.444       .  S
C800        C801   1.411       .  A
C801        C802   1.400       .  A
C801        H814   1.084       .  S
C802        C804   1.444       .  S
C803        N807   1.157       .  T
C804        N808   1.157       .  T
C805        N810   1.157       .  T
C806        N809   1.157       .  T
C815        C816   1.408       .  A
C815        C820   1.401       .  A
C815        C829   1.443       .  S
C816        C821   1.483       .  S
C816        C817   1.401       .  A
C817        C818   1.399       .  A
C817        H836   1.085       .  S
C818        C819   1.417       .  A
C818        C830   1.445       .  S
C819        C820   1.407       .  A
C820        H835   1.085       .  S
C821        C822   1.404       .  A
C821        C826   1.408       .  A
C822        C823   1.404       .  A
C822        H837   1.085       .  S
C823        C824   1.413       .  A
C823        C827   1.444       .  S
C824        C825   1.405       .  A
C825        C826   1.396       .  A
C825        H838   1.085       .  S
C826        C828   1.445       .  S
C827        N831   1.157       .  T
C828        N832   1.157       .  T
C829        N834   1.157       .  T
C830        N833   1.157       .  T
C839        C840   1.408       .  A
C839        C844   1.393       .  A
C839        C853   1.446       .  S
C840        C845   1.484       .  S
C840        C841   1.402       .  A
C841        C842   1.405       .  A
C841        H860   1.085       .  S
C842        C843   1.421       .  A
C842        C854   1.443       .  S
C843        C844   1.409       .  A
C844        H859   1.083       .  S
C845        C846   1.404       .  A
C845        C850   1.409       .  A
C846        C847   1.399       .  A
C846        H861   1.085       .  S
C847        C848   1.414       .  A
C847        C851   1.444       .  S
C848        C849   1.407       .  A
C849        C850   1.398       .  A
C849        H862   1.083       .  S
C850        C852   1.444       .  S
C851        N855   1.157       .  T
C852        N856   1.157       .  T
C853        N858   1.157       .  T
C854        N857   1.157       .  T
C863        C864   1.409       .  A
C863        C868   1.399   1_554  A
C863        C877   1.444       .  S
C864        C869   1.482       .  S
C864        C865   1.401       .  A
C865        C866   1.399   1_554  A
C865        H884   1.085       .  S
C866        C867   1.417       .  A
C866        C878   1.444       .  S
C867        C868   1.407       .  A
C868        H883   1.085       .  S
C869        C870   1.401       .  A
C869        C874   1.409       .  A
C870        C871   1.399       .  A
C870        H885   1.085       .  S
C871        C872   1.415       .  A
C871        C875   1.444       .  S
C872        C873   1.405       .  A
C873        C874   1.400       .  A
C873        H886   1.084       .  S
C874        C876   1.444       .  S
C875        N879   1.157       .  T
C876        N880   1.157       .  T
C877        N882   1.157       .  T
C878        N881   1.157       .  T
C887        N888   1.359       .  A
C887        N892   1.360       .  A
C887       C1286   1.496       .  S
N888        C889   1.355       .  A
C889        N890   1.356       .  A
C889       C1262   1.485       .  S
N890        C891   1.359       .  A
C891        N892   1.361       .  A
C891       C1315   1.482       .  S
C893        N894   1.357       .  A
C893        N898   1.360       .  A
C893       C1238   1.493       .  S
N894        C895   1.358       .  A
C895        N896   1.359       .  A
C895       C1310   1.485       .  S
N896        C897   1.357       .  A
C897        N898   1.359       .  A
C897       C1214   1.480       .  S
C899        N900   1.360       .  A
C899        N904   1.358       .  A
C899       C1147   1.498       .  S
N900        C901   1.360       .  A
C901        N902   1.358       .  A
C901       C1171   1.496       .  S
N902        C903   1.360       .  A
C903        N904   1.359       .  A
C903       C1190   1.481       .  S
C905        N906   1.360       .  A
C905        N910   1.355       .  A
C905       C1094   1.478       .  S
N906        C907   1.362       .  A
C907        N908   1.359       .  A
C907       C1195   1.485       .  S
N908        C909   1.355       .  A
C909        N910   1.354       .  A
C909       C1118   1.470       .  S
C911        N912   1.354       .  A
C911        N916   1.357       .  A
C911       C1051   1.484       .  S
N912        C913   1.356       .  A
C913        N914   1.360       .  A
C913       C1070   1.479       .  S
N914        C915   1.358       .  A
C915        N916   1.357       .  A
C915       C1027   1.479       .  S
C917        N918   1.359       .  A
C917        N922   1.360       .  A
C917       C1003   1.497   1_655  S
N918        C919   1.357       .  A
C919        N920   1.354       .  A
C919        C974   1.489       .  S
N920        C921   1.358       .  A
C921        N922   1.361       .  A
C921       C1075   1.481       .  S
O923       Mn949   2.094   1_565  S
O923       C1393   1.272       .  A
C924       C1243   1.494       .  S
C924        O957   1.272       .  A
C924        O954   1.269       .  A
O925       Mn932   2.164       .  S
O925       Mn943   2.129       .  S
O925       Mn947   2.170       .  S
O925      Mn1392   2.116       .  S
O926       Mn960   2.089       .  S
O926        C936   1.270       .  A
O927       Mn943   2.091       .  S
O927        C950   1.271       .  A
O928       Mn947   2.106       .  S
O928        C955   1.252       .  A
O929       Mn949   1.960       .  S
O929        C945   1.218       .  S
C930       C1166   1.490       .  S
C930        O933   1.256       .  A
C930        O956   1.217       .  S
O931       Mn932   2.157       .  S
O931       Mn965   2.117       .  S
O931       Mn947   2.164       .  S
Mn932       O937   2.095       .  S
Mn932      O1407   2.097       .  S
O934       Mn941   2.086       .  S
O934        C936   1.270       .  A
C935       C1123   1.483       .  S
C935        O961   1.251       .  A
C935        O948   1.214       .  S
C936       C1291   1.483       .  S
O937        C962   1.253       .  A
O938       Mn941   2.114       .  S
O938       Mn960   2.128       .  S
O939       Mn943   1.960       .  S
O939       Mn965   1.969       .  S
O939        C962   1.219       .  S
C940       C1046   1.487       .  S
C940        O942   1.271       .  A
Mn941       O954   2.084       .  S
Mn941      O1399   1.955   1_545  S
Mn941      O1391   1.959   1_545  S
O942       Mn965   2.085       .  S
Mn943       O959   2.087       .  S
Mn943       O953   1.949       .  S
O944       Mn949   2.101   1_565  S
O944       C1389   1.273       .  A
C945       C1022   1.484       .  S
C945        O963   1.254       .  A
C946       C1099   1.476       .  S
C946       O1387   1.273       .  A
C946        O959   1.270       .  A
Mn947      O1406   2.102       .  S
O948      Mn1384   1.959       .  S
O948       Mn951   1.948       .  S
Mn949      O1368   2.116   1_545  S
Mn949       O967   1.961       .  S
C950       C1142   1.492       .  S
C950       O1366   1.272       .  A
Mn951       O958   2.097       .  S
Mn951       O966   2.075       .  S
Mn951       O956   1.958       .  S
C952        C998   1.486       .  S
C952        O968   1.271       .  A
O953       Mn965   1.952       .  S
O953        C955   1.217       .  S
C955       C1267   1.480       .  S
O956      Mn1384   1.955       .  S
O957       Mn960   2.095       .  S
C962       C1219   1.486       .  S
O963      Mn1390   2.102   1_545  S
O964      Mn1375   2.097   1_545  S
O964        C969   1.250       .  A
Mn965       O968   2.087       .  S
O967        C969   1.216       .  S
C969        C979   1.475       .  S
C970        C975   1.396       .  A
C970        C984   1.445       .  S
C971        C976   1.480       .  S
C971        C972   1.400       .  A
C972        C973   1.402       .  A
C972        H991   1.085       .  S
C973        C974   1.420       .  A
C973        C985   1.444       .  S
C975        H990   1.084       .  S
C976        C977   1.403   1_655  A
C976        C981   1.409       .  A
C977        C978   1.403       .  A
C977        H992   1.085       .  S
C978        C979   1.414   1_455  A
C978        C982   1.444       .  S
C979        C980   1.403       .  A
C980        C981   1.394       .  A
C980        H993   1.085       .  S
C981        C983   1.445       .  S
C982        N986   1.157       .  T
C983        N987   1.157       .  T
C984        N989   1.157       .  T
C985        N988   1.158       .  T
C994        C995   1.412   1_455  A
C994        C999   1.404       .  A
C994       C1008   1.443       .  S
C995       C1000   1.490   1_655  S
C995        C996   1.402       .  A
C996        C997   1.397       .  A
C996       H1015   1.085       .  S
C997        C998   1.416       .  A
C997       C1009   1.445       .  S
C998        C999   1.408   1_655  A
C999       H1014   1.085       .  S
C1000      C1005   1.410       .  A
C1001      C1002   1.404       .  A
C1001      H1016   1.085       .  S
C1002      C1006   1.443       .  S
C1003      C1004   1.410       .  A
C1004      C1005   1.397       .  A
C1004      H1017   1.084       .  S
C1005      C1007   1.445       .  S
C1006      N1010   1.157       .  T
C1007      N1011   1.157       .  T
C1008      N1013   1.157       .  T
C1009      N1012   1.157       .  T
C1018      C1023   1.402       .  A
C1018      C1032   1.443       .  S
C1019      C1024   1.482       .  S
C1019      C1020   1.399       .  A
C1020      C1021   1.396       .  A
C1020      H1039   1.085       .  S
C1021      C1022   1.419       .  A
C1021      C1033   1.445       .  S
C1023      H1038   1.085       .  S
C1024      C1025   1.403       .  A
C1025      C1026   1.402       .  A
C1025      H1040   1.085       .  S
C1026      C1027   1.414       .  A
C1026      C1030   1.444       .  S
C1028      C1029   1.397       .  A
C1028      H1041   1.085       .  S
C1029      C1031   1.444       .  S
C1030      N1034   1.157       .  T
C1031      N1035   1.157       .  T
C1032      N1037   1.157       .  T
C1033      N1036   1.157       .  T
C1042      C1043   1.407       .  A
C1042      C1047   1.395       .  A
C1042      C1056   1.444       .  S
C1043      C1048   1.476       .  S
C1044      C1045   1.397       .  A
C1044      H1063   1.086       .  S
C1045      C1057   1.443       .  S
C1046      C1047   1.408       .  A
C1047      H1062   1.083       .  S
C1048      C1053   1.408       .  A
C1049      C1050   1.399       .  A
C1049      H1064   1.085       .  S
C1050      C1054   1.444       .  S
C1051      C1052   1.406       .  A
C1052      C1053   1.395       .  A
C1052      H1065   1.085   1_655  S
C1053      C1055   1.445   1_655  S
C1054      N1058   1.157       .  T
C1055      N1059   1.157       .  T
C1056      N1061   1.157       .  T
C1057      N1060   1.157       .  T
C1066      C1067   1.409       .  A
C1066      C1071   1.398       .  A
C1066      C1080   1.444       .  S
C1067      C1072   1.478       .  S
C1068      C1069   1.398       .  A
C1068      H1087   1.085       .  S
C1069      C1081   1.445       .  S
C1070      C1071   1.404       .  A
C1071      H1086   1.084       .  S
C1072      C1073   1.401       .  A
C1072      C1077   1.408   1_655  A
C1073      C1074   1.400   1_554  A
C1073      H1088   1.085       .  S
C1074      C1075   1.414       .  A
C1074      C1078   1.443       .  S
C1075      C1076   1.406   1_655  A
C1076      C1077   1.397   1_556  A
C1078      N1082   1.157       .  T
C1079      N1083   1.157       .  T
C1080      N1085   1.157       .  T
C1081      N1084   1.157       .  T
C1090      C1091   1.410       .  A
C1090      C1095   1.398       .  A
C1090      C1547   1.445       .  S
C1091      C1096   1.481       .  S
C1091      C1092   1.402       .  A
C1092      C1093   1.402       .  A
C1092      H1111   1.085       .  S
C1093      C1094   1.412       .  A
C1093      C1105   1.443       .  S
C1094      C1095   1.404       .  A
C1095      H1553   1.085       .  S
C1096      C1097   1.401       .  A
C1096      C1101   1.409       .  A
C1097      C1098   1.401       .  A
C1097      H1112   1.085       .  S
C1098      C1099   1.410       .  A
C1098      C1102   1.440       .  S
C1099      C1100   1.404       .  A
C1100      C1101   1.399       .  A
C1100      H1556   1.085       .  S
C1101      C1546   1.444       .  S
C1102      N1106   1.156       .  T
C1103      C1544   1.444       .  S
C1103      N1107   1.157       .  T
C1104      C1533   1.445       .  S
C1104      N1109   1.157   1_565  T
C1105      N1108   1.157       .  T
H1110      C1538   1.085       .  S
H1113      C1543   1.085       .  S
C1114      C1115   1.412       .  A
C1114      C1119   1.402       .  A
C1114      C1571   1.445       .  S
C1115      C1120   1.482       .  S
C1115      C1116   1.403       .  A
C1116      C1117   1.394       .  A
C1116      H1135   1.084       .  S
C1117      C1118   1.409       .  A
C1117      C1129   1.445       .  S
C1118      C1119   1.403       .  A
C1119      H1577   1.085       .  S
C1120      C1121   1.399       .  A
C1120      C1125   1.410       .  A
C1121      C1122   1.392       .  A
C1121      H1136   1.085       .  S
C1122      C1123   1.419       .  A
C1122      C1126   1.446       .  S
C1123      C1124   1.406       .  A
C1124      C1125   1.402       .  A
C1124      H1580   1.084       .  S
C1125      C1570   1.443       .  S
C1126      N1130   1.157       .  T
C1127      C1568   1.443       .  S
C1127      N1131   1.157       .  T
C1128      C1557   1.445   1_545  S
C1128      N1133   1.157       .  T
C1129      N1132   1.157       .  T
H1134      C1562   1.085   1_545  S
H1137      C1567   1.084       .  S
C1138      C1139   1.406       .  A
C1138      C1143   1.400       .  A
C1138      C1595   1.444       .  S
C1139      C1144   1.482       .  S
C1139      C1140   1.400       .  A
C1140      C1141   1.401       .  A
C1140      H1159   1.085       .  S
C1141      C1142   1.419       .  A
C1141      C1153   1.444       .  S
C1142      C1143   1.410       .  A
C1143      H1601   1.083       .  S
C1144      C1145   1.399       .  A
C1144      C1149   1.406       .  A
C1145      C1146   1.404       .  A
C1145      H1160   1.085       .  S
C1146      C1147   1.423       .  A
C1146      C1150   1.444       .  S
C1147      C1148   1.410       .  A
C1148      C1149   1.398       .  A
C1148      H1161   1.084       .  S
C1149      C1151   1.444       .  S
C1150      N1154   1.157       .  T
C1151      N1598   1.157       .  T
C1152      C1581   1.444       .  S
C1152      N1157   1.157       .  T
C1153      N1156   1.157       .  T
N1155      C1594   1.157       .  T
H1158      C1586   1.083   1_545  S
C1162      C1163   1.414       .  A
C1162      C1167   1.407       .  A
C1162      C1176   1.443       .  S
C1163      C1168   1.494       .  S
C1163      C1164   1.401       .  A
C1164      C1165   1.398       .  A
C1164      H1183   1.085       .  S
C1165      C1166   1.418       .  A
C1165      C1177   1.444       .  S
C1166      C1167   1.406       .  A
C1167      H1182   1.085       .  S
C1168      C1169   1.404       .  A
C1168      C1173   1.413       .  A
C1169      C1170   1.406       .  A
C1169      H1184   1.085       .  S
C1170      C1171   1.420       .  A
C1170      C1617   1.444       .  S
C1171      C1172   1.407       .  A
C1172      C1173   1.399       .  A
C1172      H1185   1.085       .  S
C1173      C1175   1.444       .  S
C1174      C1613   1.444       .  S
C1174      N1178   1.157   1_565  T
C1175      N1179   1.157       .  T
C1176      N1181   1.157       .  T
C1177      N1623   1.158       .  T
N1180      C1620   1.158       .  T
C1186      C1187   1.408       .  A
C1186      C1191   1.399       .  A
C1186      C1200   1.444       .  S
C1187      C1192   1.480       .  S
C1187      C1188   1.401       .  A
C1188      C1189   1.402       .  A
C1188      H1207   1.085       .  S
C1189      C1190   1.415       .  A
C1189      C1201   1.444       .  S
C1190      C1191   1.405       .  A
C1191      H1206   1.085       .  S
C1192      C1193   1.400       .  A
C1192      C1197   1.408       .  A
C1193      C1194   1.400   1_554  A
C1193      H1651   1.085       .  S
C1194      C1195   1.417       .  A
C1194      C1641   1.444       .  S
C1195      C1196   1.407       .  A
C1196      C1197   1.401   1_556  A
C1196      H1209   1.084       .  S
C1197      C1199   1.444       .  S
C1198      C1637   1.444       .  S
C1198      N1202   1.157       .  T
C1199      N1203   1.157       .  T
C1200      N1205   1.157       .  T
C1201      N1204   1.157       .  T
H1208      C1636   1.085       .  S
C1210      C1211   1.410       .  A
C1210      C1215   1.401       .  A
C1210      C1224   1.444       .  S
C1211      C1216   1.484       .  S
C1211      C1212   1.403       .  A
C1212      C1213   1.400       .  A
C1212      H1231   1.085       .  S
C1213      C1214   1.413       .  A
C1213      C1225   1.444       .  S
C1214      C1215   1.405       .  A
C1215      H1230   1.085       .  S
C1216      C1217   1.400       .  A
C1216      C1221   1.410       .  A
C1217      C1218   1.397       .  A
C1217      H1232   1.085       .  S
C1218      C1219   1.418       .  A
C1218      C1222   1.445       .  S
C1219      C1220   1.408       .  A
C1220      C1221   1.402       .  A
C1220      H1233   1.085       .  S
C1221      C1223   1.443       .  S
C1222      N1226   1.157       .  T
C1223      N1227   1.157       .  T
C1224      N1229   1.157       .  T
C1225      N1228   1.157       .  T
C1234      C1235   1.408       .  A
C1234      C1239   1.399       .  A
C1234      C1248   1.445       .  S
C1235      C1240   1.481       .  S
C1235      C1236   1.399       .  A
C1236      C1237   1.401       .  A
C1236      H1255   1.085       .  S
C1237      C1238   1.421       .  A
C1237      C1249   1.444       .  S
C1238      C1239   1.409       .  A
C1239      H1254   1.084       .  S
C1240      C1241   1.398       .  A
C1240      C1245   1.407       .  A
C1241      C1242   1.399       .  A
C1241      H1256   1.085       .  S
C1242      C1243   1.422       .  A
C1242      C1246   1.444       .  S
C1243      C1244   1.411       .  A
C1244      C1245   1.400       .  A
C1244      H1257   1.084       .  S
C1245      C1247   1.444       .  S
C1246      N1250   1.157       .  T
C1247      N1251   1.157       .  T
C1248      N1253   1.157       .  T
C1249      N1252   1.157       .  T
C1258      C1259   1.408       .  A
C1258      C1263   1.401       .  A
C1258      C1272   1.443       .  S
C1259      C1264   1.483       .  S
C1259      C1260   1.401       .  A
C1260      C1261   1.399       .  A
C1260      H1279   1.085       .  S
C1261      C1262   1.417       .  A
C1261      C1273   1.445       .  S
C1262      C1263   1.407       .  A
C1263      H1278   1.085       .  S
C1264      C1265   1.404       .  A
C1264      C1269   1.408       .  A
C1265      C1266   1.404       .  A
C1265      H1280   1.085       .  S
C1266      C1267   1.413       .  A
C1266      C1270   1.444       .  S
C1267      C1268   1.405       .  A
C1268      C1269   1.396       .  A
C1268      H1281   1.085       .  S
C1269      C1271   1.445       .  S
C1270      N1274   1.157       .  T
C1271      N1275   1.157       .  T
C1272      N1277   1.157       .  T
C1273      N1276   1.157       .  T
C1282      C1283   1.408       .  A
C1282      C1287   1.393       .  A
C1282      C1296   1.446       .  S
C1283      C1288   1.484       .  S
C1283      C1284   1.403       .  A
C1284      C1285   1.405       .  A
C1284      H1303   1.085       .  S
C1285      C1286   1.421       .  A
C1285      C1297   1.443       .  S
C1286      C1287   1.409       .  A
C1287      H1302   1.083       .  S
C1288      C1289   1.404       .  A
C1288      C1293   1.409       .  A
C1289      C1290   1.399       .  A
C1289      H1304   1.085       .  S
C1290      C1291   1.414       .  A
C1290      C1294   1.444       .  S
C1291      C1292   1.407       .  A
C1292      C1293   1.398       .  A
C1292      H1305   1.083       .  S
C1293      C1295   1.444       .  S
C1294      N1298   1.157       .  T
C1295      N1299   1.157       .  T
C1296      N1301   1.157       .  T
C1297      N1300   1.157       .  T
C1306      C1307   1.409       .  A
C1306      C1311   1.399   1_554  A
C1306      C1320   1.444       .  S
C1307      C1312   1.482       .  S
C1307      C1308   1.401       .  A
C1308      C1309   1.399   1_554  A
C1308      H1327   1.085       .  S
C1309      C1310   1.417       .  A
C1309      C1321   1.444       .  S
C1310      C1311   1.407       .  A
C1311      H1326   1.085       .  S
C1312      C1313   1.401       .  A
C1312      C1317   1.409       .  A
C1313      C1314   1.399       .  A
C1313      H1328   1.085       .  S
C1314      C1315   1.415       .  A
C1314      C1318   1.444       .  S
C1315      C1316   1.405       .  A
C1316      C1317   1.400       .  A
C1316      H1329   1.084       .  S
C1317      C1319   1.444       .  S
C1318      N1322   1.157       .  T
C1319      N1323   1.157       .  T
C1320      N1325   1.157       .  T
C1321      N1324   1.157       .  T
C1330      N1331   1.359       .  A
C1330      N1335   1.360       .  A
C1330      C1729   1.496       .  S
N1331      C1332   1.355       .  A
C1332      N1333   1.356       .  A
C1332      C1705   1.485       .  S
N1333      C1334   1.359       .  A
C1334      N1335   1.361       .  A
C1334      C1758   1.482       .  S
C1336      N1337   1.357       .  A
C1336      N1341   1.360       .  A
C1336      C1681   1.493       .  S
N1337      C1338   1.358       .  A
C1338      N1339   1.359       .  A
C1338      C1753   1.485       .  S
N1339      C1340   1.357       .  A
C1340      N1341   1.359       .  A
C1340      C1657   1.480       .  S
C1342      N1343   1.360       .  A
C1342      N1347   1.358       .  A
C1342      C1590   1.498       .  S
N1343      C1344   1.360       .  A
C1344      N1345   1.358       .  A
C1344      C1614   1.496       .  S
N1345      C1346   1.360       .  A
C1346      N1347   1.359       .  A
C1346      C1633   1.481       .  S
C1348      N1349   1.360       .  A
C1348      N1353   1.355       .  A
C1348      C1537   1.478       .  S
N1349      C1350   1.362       .  A
C1350      N1351   1.359       .  A
C1350      C1638   1.485       .  S
N1351      C1352   1.355       .  A
C1352      N1353   1.354       .  A
C1352      C1561   1.470       .  S
C1354      N1355   1.354       .  A
C1354      N1359   1.357       .  A
C1354      C1494   1.484       .  S
N1355      C1356   1.356       .  A
C1356      N1357   1.360       .  A
C1356      C1513   1.479       .  S
N1357      C1358   1.358       .  A
C1358      N1359   1.357       .  A
C1358      C1470   1.479       .  S
C1360      N1361   1.359       .  A
C1360      N1365   1.360       .  A
C1360      C1446   1.497   1_655  S
N1361      C1362   1.357       .  A
C1362      N1363   1.354       .  A
C1362      C1417   1.489       .  S
N1363      C1364   1.358       .  A
C1364      N1365   1.361       .  A
C1364      C1518   1.481       .  S
O1366     Mn1392   2.094       .  S
C1367      C1686   1.494       .  S
C1367      O1400   1.272       .  A
C1367      O1397   1.269       .  A
O1368     Mn1375   2.164       .  S
O1368     Mn1386   2.129       .  S
O1368     Mn1390   2.170       .  S
O1369     Mn1403   2.089       .  S
O1369      C1379   1.270       .  A
O1370     Mn1386   2.091       .  S
O1370      C1393   1.271       .  A
O1371     Mn1390   2.106       .  S
O1371      C1398   1.252       .  A
O1372     Mn1392   1.960       .  S
O1372      C1388   1.218       .  S
C1373      C1609   1.490       .  S
C1373      O1376   1.256       .  A
C1373      O1399   1.217       .  S
O1374     Mn1375   2.157       .  S
O1374     Mn1408   2.117       .  S
O1374     Mn1390   2.164       .  S
Mn1375     O1380   2.095       .  S
O1377     Mn1384   2.086       .  S
O1377      C1379   1.270       .  A
C1378      C1566   1.483       .  S
C1378      O1404   1.251       .  A
C1378      O1391   1.214       .  S
C1379      C1734   1.484       .  S
O1380      C1405   1.253       .  A
O1381     Mn1384   2.114       .  S
O1381     Mn1403   2.128       .  S
O1382     Mn1386   1.960       .  S
O1382     Mn1408   1.969       .  S
O1382      C1405   1.219       .  S
C1383      C1489   1.487       .  S
C1383      O1385   1.271       .  A
Mn1384     O1397   2.084       .  S
O1385     Mn1408   2.085       .  S
Mn1386     O1402   2.087       .  S
Mn1386     O1396   1.949       .  S
O1387     Mn1392   2.101       .  S
C1388      C1465   1.484       .  S
C1388      O1406   1.254       .  A
C1389      C1542   1.476       .  S
C1389      O1402   1.270       .  A
O1391     Mn1394   1.948       .  S
Mn1392     O1410   1.961       .  S
C1393      C1585   1.492       .  S
Mn1394     O1401   2.097       .  S
Mn1394     O1409   2.075       .  S
Mn1394     O1399   1.958       .  S
C1395      C1441   1.486       .  S
C1395      O1411   1.271       .  A
O1396     Mn1408   1.952       .  S
O1396      C1398   1.217       .  S
C1398      C1710   1.480       .  S
O1400     Mn1403   2.095       .  S
C1405      C1662   1.486       .  S
O1407      C1412   1.250       .  A
Mn1408     O1411   2.087       .  S
O1410      C1412   1.216       .  S
C1412      C1422   1.476       .  S
C1413      C1418   1.396       .  A
C1413      C1427   1.445       .  S
C1414      C1419   1.480       .  S
C1414      C1415   1.400       .  A
C1415      C1416   1.402       .  A
C1415      H1434   1.085       .  S
C1416      C1417   1.420       .  A
C1416      C1428   1.444       .  S
C1418      H1433   1.084       .  S
C1419      C1420   1.403   1_655  A
C1419      C1424   1.409       .  A
C1420      C1421   1.403       .  A
C1420      H1435   1.085       .  S
C1421      C1422   1.414   1_455  A
C1421      C1425   1.444       .  S
C1422      C1423   1.403       .  A
C1423      C1424   1.394       .  A
C1423      H1436   1.085       .  S
C1424      C1426   1.445       .  S
C1425      N1429   1.157       .  T
C1426      N1430   1.157       .  T
C1427      N1432   1.157       .  T
C1428      N1431   1.158       .  T
C1437      C1438   1.412   1_455  A
C1437      C1442   1.404       .  A
C1437      C1451   1.443       .  S
C1438      C1443   1.490   1_655  S
C1438      C1439   1.402       .  A
C1439      C1440   1.397       .  A
C1439      H1458   1.085       .  S
C1440      C1441   1.416       .  A
C1440      C1452   1.445       .  S
C1441      C1442   1.408   1_655  A
C1442      H1457   1.085       .  S
C1443      C1448   1.410       .  A
C1444      C1445   1.404       .  A
C1444      H1459   1.085       .  S
C1445      C1449   1.443       .  S
C1446      C1447   1.410       .  A
C1447      C1448   1.397       .  A
C1447      H1460   1.084       .  S
C1448      C1450   1.445       .  S
C1449      N1453   1.157       .  T
C1450      N1454   1.157       .  T
C1451      N1456   1.157       .  T
C1452      N1455   1.157       .  T
C1461      C1466   1.402       .  A
C1461      C1475   1.443       .  S
C1462      C1467   1.482       .  S
C1462      C1463   1.399       .  A
C1463      C1464   1.396       .  A
C1463      H1482   1.085       .  S
C1464      C1465   1.419       .  A
C1464      C1476   1.445       .  S
C1466      H1481   1.085       .  S
C1467      C1468   1.403       .  A
C1468      C1469   1.402       .  A
C1468      H1483   1.085       .  S
C1469      C1470   1.414       .  A
C1469      C1473   1.444       .  S
C1471      C1472   1.396       .  A
C1471      H1484   1.085       .  S
C1472      C1474   1.444       .  S
C1473      N1477   1.157       .  T
C1474      N1478   1.157       .  T
C1475      N1480   1.157       .  T
C1476      N1479   1.157       .  T
C1485      C1486   1.407       .  A
C1485      C1490   1.395       .  A
C1485      C1499   1.444       .  S
C1486      C1491   1.476       .  S
C1487      C1488   1.397       .  A
C1487      H1506   1.086       .  S
C1488      C1500   1.443       .  S
C1489      C1490   1.408       .  A
C1490      H1505   1.083       .  S
C1491      C1496   1.408       .  A
C1492      C1493   1.399       .  A
C1492      H1507   1.085       .  S
C1493      C1497   1.444       .  S
C1494      C1495   1.406       .  A
C1495      C1496   1.395       .  A
C1495      H1508   1.085   1_655  S
C1496      C1498   1.445   1_655  S
C1497      N1501   1.157       .  T
C1498      N1502   1.157       .  T
C1499      N1504   1.157       .  T
C1500      N1503   1.157       .  T
C1509      C1510   1.409       .  A
C1509      C1514   1.398       .  A
C1509      C1523   1.444       .  S
C1510      C1515   1.478       .  S
C1511      C1512   1.398       .  A
C1511      H1530   1.085       .  S
C1512      C1524   1.445       .  S
C1513      C1514   1.404       .  A
C1514      H1529   1.084       .  S
C1515      C1516   1.401       .  A
C1515      C1520   1.408   1_655  A
C1516      C1517   1.400   1_554  A
C1516      H1531   1.085       .  S
C1517      C1518   1.414       .  A
C1517      C1521   1.443       .  S
C1518      C1519   1.406   1_655  A
C1519      C1520   1.397   1_556  A
C1521      N1525   1.157       .  T
C1522      N1526   1.157       .  T
C1523      N1528   1.157       .  T
C1524      N1527   1.157       .  T
C1533      C1534   1.410       .  A
C1533      C1538   1.398       .  A
C1534      C1539   1.481       .  S
C1534      C1535   1.402       .  A
C1535      C1536   1.402       .  A
C1535      H1554   1.085       .  S
C1536      C1537   1.412       .  A
C1536      C1548   1.443       .  S
C1537      C1538   1.405       .  A
C1539      C1540   1.401       .  A
C1539      C1544   1.409       .  A
C1540      C1541   1.401       .  A
C1540      H1555   1.085       .  S
C1541      C1542   1.410       .  A
C1541      C1545   1.440       .  S
C1542      C1543   1.404       .  A
C1543      C1544   1.399       .  A
C1545      N1549   1.156       .  T
C1546      N1550   1.157       .  T
C1547      N1552   1.157       .  T
C1548      N1551   1.157       .  T
C1557      C1558   1.412       .  A
C1557      C1562   1.402       .  A
C1558      C1563   1.482       .  S
C1558      C1559   1.403       .  A
C1559      C1560   1.394       .  A
C1559      H1578   1.084       .  S
C1560      C1561   1.409       .  A
C1560      C1572   1.445       .  S
C1561      C1562   1.403       .  A
C1563      C1564   1.399       .  A
C1563      C1568   1.410       .  A
C1564      C1565   1.392       .  A
C1564      H1579   1.085       .  S
C1565      C1566   1.419       .  A
C1565      C1569   1.446       .  S
C1566      C1567   1.406       .  A
C1567      C1568   1.402       .  A
C1569      N1573   1.157       .  T
C1570      N1574   1.157       .  T
C1571      N1576   1.157       .  T
C1572      N1575   1.157       .  T
C1581      C1582   1.406   1_545  A
C1581      C1586   1.400   1_545  A
C1582      C1587   1.482       .  S
C1582      C1583   1.400       .  A
C1583      C1584   1.401       .  A
C1583      H1602   1.085       .  S
C1584      C1585   1.419       .  A
C1584      C1596   1.444       .  S
C1585      C1586   1.410       .  A
C1587      C1588   1.399       .  A
C1587      C1592   1.406       .  A
C1588      C1589   1.404       .  A
C1588      H1603   1.085       .  S
C1589      C1590   1.423       .  A
C1589      C1593   1.444       .  S
C1590      C1591   1.410       .  A
C1591      C1592   1.398       .  A
C1591      H1604   1.084       .  S
C1592      C1594   1.445       .  S
C1593      N1597   1.157       .  T
C1595      N1600   1.157       .  T
C1596      N1599   1.157       .  T
C1605      C1606   1.414       .  A
C1605      C1610   1.407       .  A
C1605      C1619   1.443       .  S
C1606      C1611   1.494       .  S
C1606      C1607   1.401       .  A
C1607      C1608   1.398       .  A
C1607      H1626   1.085   1_565  S
C1608      C1609   1.418       .  A
C1608      C1620   1.444   1_565  S
C1609      C1610   1.406       .  A
C1610      H1625   1.085       .  S
C1611      C1612   1.404       .  A
C1611      C1616   1.413       .  A
C1612      C1613   1.406       .  A
C1612      H1627   1.085       .  S
C1613      C1614   1.420       .  A
C1614      C1615   1.407       .  A
C1615      C1616   1.399       .  A
C1615      H1628   1.085       .  S
C1616      C1618   1.444       .  S
C1617      N1621   1.157       .  T
C1618      N1622   1.157       .  T
C1619      N1624   1.157       .  T
C1629      C1630   1.408       .  A
C1629      C1634   1.399       .  A
C1629      C1643   1.444       .  S
C1630      C1635   1.480       .  S
C1630      C1631   1.401   1_565  A
C1631      C1632   1.402       .  A
C1631      H1650   1.085       .  S
C1632      C1633   1.415   1_545  A
C1632      C1644   1.444       .  S
C1633      C1634   1.405       .  A
C1634      H1649   1.085       .  S
C1635      C1636   1.400   1_565  A
C1635      C1640   1.408       .  A
C1636      C1637   1.400   1_554  A
C1637      C1638   1.417   1_545  A
C1638      C1639   1.407       .  A
C1639      C1640   1.401   1_556  A
C1639      H1652   1.084       .  S
C1640      C1642   1.444       .  S
C1641      N1645   1.157       .  T
C1642      N1646   1.157       .  T
C1643      N1648   1.157       .  T
C1644      N1647   1.157       .  T
C1653      C1654   1.410       .  A
C1653      C1658   1.401       .  A
C1653      C1667   1.444       .  S
C1654      C1659   1.484       .  S
C1654      C1655   1.403       .  A
C1655      C1656   1.400       .  A
C1655      H1674   1.085       .  S
C1656      C1657   1.413       .  A
C1656      C1668   1.444       .  S
C1657      C1658   1.405       .  A
C1658      H1673   1.085       .  S
C1659      C1660   1.400       .  A
C1659      C1664   1.410       .  A
C1660      C1661   1.397       .  A
C1660      H1675   1.085       .  S
C1661      C1662   1.418       .  A
C1661      C1665   1.445       .  S
C1662      C1663   1.408       .  A
C1663      C1664   1.402       .  A
C1663      H1676   1.085       .  S
C1664      C1666   1.443       .  S
C1665      N1669   1.157       .  T
C1666      N1670   1.157       .  T
C1667      N1672   1.157       .  T
C1668      N1671   1.157       .  T
C1677      C1678   1.408       .  A
C1677      C1682   1.399       .  A
C1677      C1691   1.445       .  S
C1678      C1683   1.481       .  S
C1678      C1679   1.399       .  A
C1679      C1680   1.401       .  A
C1679      H1698   1.085       .  S
C1680      C1681   1.421       .  A
C1680      C1692   1.444       .  S
C1681      C1682   1.409       .  A
C1682      H1697   1.084       .  S
C1683      C1684   1.398       .  A
C1683      C1688   1.407       .  A
C1684      C1685   1.399       .  A
C1684      H1699   1.085       .  S
C1685      C1686   1.422       .  A
C1685      C1689   1.444       .  S
C1686      C1687   1.411       .  A
C1687      C1688   1.400       .  A
C1687      H1700   1.084       .  S
C1688      C1690   1.444       .  S
C1689      N1693   1.157       .  T
C1690      N1694   1.157       .  T
C1691      N1696   1.157       .  T
C1692      N1695   1.157       .  T
C1701      C1702   1.408       .  A
C1701      C1706   1.401       .  A
C1701      C1715   1.443       .  S
C1702      C1707   1.483       .  S
C1702      C1703   1.401       .  A
C1703      C1704   1.399       .  A
C1703      H1722   1.085       .  S
C1704      C1705   1.417       .  A
C1704      C1716   1.445       .  S
C1705      C1706   1.407       .  A
C1706      H1721   1.085       .  S
C1707      C1708   1.404       .  A
C1707      C1712   1.408       .  A
C1708      C1709   1.404       .  A
C1708      H1723   1.085       .  S
C1709      C1710   1.413       .  A
C1709      C1713   1.444       .  S
C1710      C1711   1.405       .  A
C1711      C1712   1.396       .  A
C1711      H1724   1.085       .  S
C1712      C1714   1.445       .  S
C1713      N1717   1.157       .  T
C1714      N1718   1.157       .  T
C1715      N1720   1.157       .  T
C1716      N1719   1.157       .  T
C1725      C1726   1.408       .  A
C1725      C1730   1.393       .  A
C1725      C1739   1.446       .  S
C1726      C1731   1.484       .  S
C1726      C1727   1.403       .  A
C1727      C1728   1.405       .  A
C1727      H1746   1.085       .  S
C1728      C1729   1.421       .  A
C1728      C1740   1.443       .  S
C1729      C1730   1.409       .  A
C1730      H1745   1.083       .  S
C1731      C1732   1.404       .  A
C1731      C1736   1.409       .  A
C1732      C1733   1.399       .  A
C1732      H1747   1.085       .  S
C1733      C1734   1.414       .  A
C1733      C1737   1.444       .  S
C1734      C1735   1.407       .  A
C1735      C1736   1.398       .  A
C1735      H1748   1.083       .  S
C1736      C1738   1.444       .  S
C1737      N1741   1.157       .  T
C1738      N1742   1.157       .  T
C1739      N1744   1.157       .  T
C1740      N1743   1.157       .  T
C1749      C1750   1.409       .  A
C1749      C1754   1.399   1_554  A
C1749      C1763   1.444       .  S
C1750      C1755   1.482       .  S
C1750      C1751   1.401       .  A
C1751      C1752   1.399   1_554  A
C1751      H1770   1.085       .  S
C1752      C1753   1.417       .  A
C1752      C1764   1.444       .  S
C1753      C1754   1.407       .  A
C1754      H1769   1.085       .  S
C1755      C1756   1.401       .  A
C1755      C1760   1.409       .  A
C1756      C1757   1.399       .  A
C1756      H1771   1.085       .  S
C1757      C1758   1.415       .  A
C1757      C1761   1.444       .  S
C1758      C1759   1.405       .  A
C1759      C1760   1.400       .  A
C1759      H1772   1.084       .  S
C1760      C1762   1.444       .  S
C1761      N1765   1.157       .  T
C1762      N1766   1.157       .  T
C1763      N1768   1.157       .  T
C1764      N1767   1.157       .  T
