geometry optimzed in LAMMPS
_audit_creation_date              2020-11-30 
_audit_creation_method            'lammps2cif' 
_symmetry_space_group_name_H-M    'P1' 
_symmetry_Int_Tables_number       1 
_symmetry_cell_setting            triclinic 
loop_ 
_symmetry_equiv_pos_as_xyz 
  x,y,z 
_cell_length_a                    35.73754734914019 
_cell_length_b                    35.40705722126411 
_cell_length_c                    25.728064366035344 
_cell_angle_alpha                 89.33136126083699 
_cell_angle_beta                  89.75490812075815 
_cell_angle_gamma                 120.6330110222215 
loop_ 
_atom_site_label 
_atom_site_type_symbol 
_atom_site_fract_x 
_atom_site_fract_y 
_atom_site_fract_z 
_atom_site_charge 
C1          C  0.15472833  0.08507828  0.37065098     0.00000
C2          C  0.19178952  0.09975402  0.39859258     0.00000
C3          C  0.15724595  0.08926371  0.19718026     0.00000
C4          C  0.18898911  0.10788626  0.15871075     0.00000
O5          O  0.08984241  0.02995282  0.21187021    -0.73510
O6          O  0.01985200  0.45988990  0.32388022    -0.74490
O7          O  0.09153260  0.03054104  0.32817390    -0.63110
O8          O  0.02428723  0.45826064  0.21205574    -0.71520
O9          O  0.04662497  0.41300325  0.23156932    -0.71070
O10         O  0.13924786  0.51102652  0.33486091    -0.62330
O11         O  0.04842306  0.42127272  0.34366801    -0.74840
O12         O  0.13879461  0.51232656  0.22771118    -0.73610
Cu13       Cu  0.05616179  0.49521487  0.26936959     1.04560
Cu14       Cu  0.09531253  0.46183738  0.28349266     1.04330
C15         C  0.12849276  0.03988481  0.20838076     0.92690
C16         C  0.01631860  0.42794653  0.34915546     0.91830
C17         C  0.12800493  0.03919933  0.34509390     0.83970
C18         C  0.01774207  0.41989266  0.21051169     0.90240
C19         C  0.46955057  0.38662918  0.19833816     0.00000
C20         C  0.45453371  0.35178726  0.16544503     0.00000
C21         C  0.47067199  0.40116519  0.37658970     0.00000
C22         C  0.45354413  0.36344357  0.40751423     0.00000
C23         C  0.47662980  0.06106652  0.18970244     0.00000
C24         C  0.45848404  0.07915295  0.15725744     0.00000
C25         C  0.45823625  0.06934600  0.36515786     0.00000
C26         C  0.43859771  0.08715161  0.39429311     0.00000
O27         O  0.03793453  0.12945522  0.34571930    -0.73510
O28         O  0.13078684  0.14297654  0.22475219    -0.74490
O29         O  0.03706738  0.12398015  0.23802797    -0.63110
O30         O  0.13969971  0.14480139  0.34090706    -0.71520
O31         O  0.09243389  0.08737583  0.38207259    -0.71070
O32         O  0.03237965  0.06051935  0.24383868    -0.62330
O33         O  0.12102589  0.08950481  0.27202726    -0.74840
O34         O  0.01849118  0.06088439  0.35737203    -0.73610
Cu35       Cu  0.08866707  0.14105088  0.28877271     1.04560
Cu36       Cu  0.06571714  0.07346395  0.31284586     1.04330
C37         C  0.00849377  0.08989672  0.36078793     0.92690
C38         C  0.13872393  0.11194607  0.23234632     0.91830
C39         C  0.01884139  0.08438138  0.22261834     0.83970
C40         C  0.13099818  0.11120618  0.37050989     0.90240
O41         O  0.46171200  0.42142612  0.26755243    -0.73510
O42         O  0.46329336  0.02947095  0.29821264    -0.74490
O43         O  0.46075003  0.46253675  0.36073455    -0.63110
O44         O  0.47204097  0.99328208  0.20928575    -0.71520
O45         O  0.41176718  0.49257669  0.22296442    -0.71070
O46         O  0.40603407  0.40129403  0.33624390    -0.62330
O47         O  0.40301341  0.48881879  0.33696402    -0.74840
O48         O  0.40880216  0.40465197  0.21730417    -0.73730
Cu49       Cu  0.46708411  0.47787900  0.28414612     1.04560
Cu50       Cu  0.40058083  0.44322745  0.27816115     1.04330
C51         C  0.44237264  0.40176532  0.22814907     0.92690
C52         C  0.43719055  0.02737737  0.33167611     0.91830
C53         C  0.44171572  0.42124004  0.36251170     0.83970
C54         C  0.45052709  0.01217136  0.20312489     0.90240
C55         C  0.11511679  0.17887808  0.89354747     0.00000
C56         C  0.10204878  0.15198470  0.85118950     0.00000
C57         C  0.10835124  0.44054578  0.91481176     0.00000
C58         C  0.09593003  0.45832800  0.87525922     0.00000
C59         C  0.42893035  0.48201799  0.87820201     0.00000
C60         C  0.39101828  0.46076222  0.90662520     0.00000
C61         C  0.10751893  0.43002086  0.66359752     0.00000
C62         C  0.08952111  0.44461653  0.70102376     0.00000
O63         O  0.07438520  0.06240586  0.73632424    -0.73510
O64         O  0.09899046  0.02382188  0.86824903    -0.74490
O65         O  0.08540519  0.08075507  0.84505293    -0.63110
O66         O  0.09151135  0.99849774  0.75596574    -0.71520
O67         O  0.15194432  0.02542370  0.71787046    -0.71070
O68         O  0.15305017  0.12456449  0.82043516    -0.62330
O69         O  0.15273468  0.02661834  0.82749826    -0.74840
O70         O  0.14160350  0.10807692  0.71181532    -0.73610
Cu71       Cu  0.08598222  0.03997127  0.80087654     1.04560
Cu72       Cu  0.15543647  0.07465795  0.77050643     1.04330
C73         C  0.10081865  0.09496104  0.70802528     0.92690
C74         C  0.12111313  0.00679233  0.86096747     0.91830
C75         C  0.11730111  0.11902624  0.84171395     0.83970
C76         C  0.11428909  0.99169539  0.72554247     0.90240
C77         C  0.08034462  0.11810349  0.67866001     0.00000
C78         C  0.10261305  0.15584994  0.64990048     0.00000
C79         C  0.40289042  0.45747099  0.70520628     0.00000
C80         C  0.37430385  0.44333709  0.66471229     0.00000
O81         O  0.05574286  0.10935041  0.78621069    -0.73510
O82         O  0.44314000  0.00306058  0.77063016    -0.74490
O83         O  0.01009954  0.05906109  0.70154333    -0.63110
O84         O  0.49158491  0.05011210  0.85627624    -0.71520
O85         O  0.43181815  0.04791011  0.83704158    -0.71070
O86         O  0.51746952  0.12303963  0.71210534    -0.62330
O87         O  0.42629633  0.03949491  0.71958506    -0.74840
O88         O  0.52294995  0.13483166  0.82932621    -0.73610
Cu89       Cu  0.50130078  0.05387765  0.77889929     1.04560
Cu90       Cu  0.47161668  0.09017508  0.77411736     1.04330
C91         C  0.05858515  0.13453619  0.82108053     0.92690
C92         C  0.42167242  0.00197979  0.73256351     0.91830
C93         C  0.03195943  0.09964137  0.69166288     0.83970
C94         C  0.45092386  0.03089384  0.86246142     0.90240
O95         O  0.02980224  0.45279702  0.70483832    -0.73510
O96         O  0.48487158  0.48313397  0.82644691    -0.74490
O97         O  0.04546780  0.46266920  0.82037291    -0.63110
O98         O  0.47183077  0.46929601  0.71720036    -0.71520
O99         O  0.42389433  0.40267477  0.74327664    -0.71070
O100        O  0.51595561  0.39875466  0.85272390    -0.62330
O101        O  0.43679234  0.41667078  0.85205508    -0.74840
O102        O  0.51686466  0.39430067  0.74621735    -0.73610
Cu103      Cu  0.50926460  0.46832592  0.76761347     1.04560
Cu104      Cu  0.46980443  0.39791663  0.79773749     1.04330
C105        C  0.04113354  0.42555488  0.71350892     0.92690
C106        C  0.45115389  0.45836583  0.85340024     0.91830
C107        C  0.04991918  0.43689746  0.84935428     0.83970
C108        C  0.43276664  0.43910609  0.71942178     0.90240
C109        C  0.26622283  0.26033658  0.02894979     0.00000
C110        C  0.30822686  0.29692640  0.02643216     0.00000
C111        C  0.02528196  0.27722488  0.03017551     0.00000
C112        C  0.02189177  0.23678496  0.02594127     0.00000
C113        C  0.26119979  0.01552651  0.04815915     0.00000
C114        C  0.30068627  0.01712624  0.04643721     0.00000
C115        C  0.25927196  0.01943381  0.53536931     0.00000
C116        C  0.30000607  0.02322166  0.53062579     0.00000
C117        C  0.03547582  0.24262695  0.51757516     0.00000
C118        C  0.04060760  0.28392766  0.51253901     0.00000
C119        C  0.25838572  0.25208301  0.52913561     0.00000
C120        C  0.29693178  0.29095993  0.53303744     0.00000
C121        C  0.35193379  0.33602275  0.59887359    -0.09720
C122        C  0.30979481  0.32038018  0.58010580     0.06470
C123        C  0.28724160  0.34084691  0.59837377    -0.03490
C124        C  0.30787163  0.37658330  0.63225714    -0.07940
C125        C  0.35275336  0.39703119  0.64330342     0.05590
C126        C  0.37497120  0.37605544  0.62468324    -0.02960
Br127      Br  0.43703324  0.40362043  0.61756732    -0.02660
H128        H  0.36916510  0.32009099  0.58642555     0.09500
H129        H  0.28988915  0.39175495  0.64535196     0.07520
Br130      Br  0.23216347  0.32794001  0.57137959    -0.03090
C131        C  0.34212055  0.49443770  0.65738363    -0.09720
C132        C  0.36337031  0.47373729  0.63557941     0.06470
C133        C  0.36941759  0.47694995  0.58173452    -0.03490
C134        C  0.34618249  0.48964037  0.55053318    -0.07940
C135        C  0.32285091  0.50890073  0.57015445     0.05590
C136        C  0.32544939  0.01536097  0.62498059    -0.02960
Br137      Br  0.31116356  0.05498110  0.65722191    -0.02660
H138        H  0.33904940  0.99501104  0.69917718     0.09500
H139        H  0.34981417  0.48627550  0.50998887     0.07520
Br140      Br  0.41325062  0.46949008  0.54813771    -0.03090
C141        C  0.22436161  0.23168566  0.62175416    -0.09720
C142        C  0.22092730  0.23544228  0.56725166     0.06470
C143        C  0.17942187  0.21062180  0.54590882    -0.03490
C144        C  0.14855080  0.17416572  0.57278092    -0.07940
C145        C  0.14740879  0.17409704  0.62709112     0.05590
C146        C  0.18632786  0.20469370  0.65218652    -0.02960
Br147      Br  0.18859994  0.21160621  0.72598645    -0.02660
H148        H  0.25545717  0.25014683  0.64058984     0.09500
H149        H  0.12172085  0.15042733  0.55082939     0.07520
Br150      Br  0.16333441  0.22297106  0.47939335    -0.03090
C151        C  0.05626187  0.18713282  0.54191106    -0.09720
C152        C  0.05504512  0.22483722  0.55818099     0.06470
C153        C  0.06608584  0.23583494  0.61200461    -0.03490
C154        C  0.08280944  0.21401143  0.64136828    -0.07940
C155        C  0.07811208  0.17457696  0.62456582     0.05590
C156        C  0.05834835  0.15837349  0.57696655    -0.02960
Br157      Br  0.03757134  0.09873292  0.55607943    -0.02660
H158        H  0.05092968  0.17644801  0.50215075     0.09500
H159        H  0.09615027  0.22556907  0.67958049     0.07520
Br160      Br  0.05167168  0.26896576  0.65702426    -0.03090
C161        C  0.20133510  0.52110809  0.58880303    -0.09720
C162        C  0.22894260  0.50356499  0.58296430     0.06470
C163        C  0.22039060  0.46788888  0.61690950    -0.03490
C164        C  0.18724020  0.45323893  0.65531834    -0.07940
C165        C  0.15388356  0.46289294  0.64879046     0.05590
C166        C  0.16166922  0.49773763  0.61555173    -0.02960
Br167      Br  0.11507590  0.50806877  0.59907388    -0.02660
H168        H  0.20712471  0.04931847  0.56601269     0.09500
H169        H  0.18047457  0.42516750  0.67955711     0.07520
Br170      Br  0.23725650  0.42602172  0.60110464    -0.03090
C171        C  0.11391566  0.38241208  0.59303830    -0.09720
C172        C  0.08565006  0.38843883  0.62768363     0.06470
C173        C  0.04049392  0.35502776  0.62223413    -0.03490
C174        C  0.02792196  0.32140021  0.58603269    -0.07940
C175        C  0.05736210  0.31677019  0.55471011     0.05590
C176        C  0.10093096  0.34711225  0.55969850    -0.02960
Br177      Br  0.14398589  0.34099953  0.52204583    -0.02660
H178        H  0.14736253  0.40550213  0.58803101     0.09500
H179        H  0.99427686  0.29574650  0.58552322     0.07520
Br180      Br  0.98873212  0.34504421  0.65648972    -0.03090
C181        C  0.34269873  0.37672157  0.90457779    -0.09720
C182        C  0.37486227  0.41550952  0.92783630     0.06470
C183        C  0.38644999  0.41274914  0.97819597    -0.03490
C184        C  0.35845975  0.37737079  0.00964106    -0.07940
C185        C  0.32677207  0.33652195  0.98834901     0.05590
C186        C  0.32259906  0.33631265  0.93293807    -0.02960
Br187      Br  0.29938525  0.28467013  0.89153645    -0.02660
H188        H  0.33551237  0.37741430  0.86385540     0.09500
H189        H  0.36594003  0.38072852  0.05058436     0.07520
Br190      Br  0.44553280  0.45024218  0.99839016    -0.03090
C191        C  0.32242826  0.45860982  0.93212267    -0.09720
C192        C  0.36815455  0.48300100  0.93008600     0.06470
C193        C  0.38880783  0.52165645  0.95995093    -0.03490
C194        C  0.36374564  0.03479446  0.98812598    -0.07940
C195        C  0.31867946  0.50677492  0.99752598     0.05590
C196        C  0.29818290  0.46781992  0.96766827    -0.02960
Br197      Br  0.24031992  0.42025028  0.97714958    -0.02660
H198        H  0.30554393  0.42859381  0.91026477     0.09500
H199        H  0.38029435  0.06443609  0.01002045     0.07520
Br200      Br  0.44999999  0.05294112  0.97513074    -0.03090
C201        C  0.10143073  0.36765296  0.93204156    -0.09720
C202        C  0.08040783  0.39217672  0.92826349     0.06470
C203        C  0.03908908  0.37442207  0.95236418    -0.03490
C204        C  0.01937162  0.33289145  0.97640292    -0.07940
C205        C  0.04310592  0.31189732  0.98724156     0.05590
C206        C  0.08556872  0.33105168  0.96581085    -0.02960
Br207      Br  0.12792267  0.31795513  0.99155467    -0.02660
H208        H  0.13431661  0.38194759  0.91688298     0.09500
H209        H  0.98756793  0.32019735  0.99416156     0.07520
Br210      Br  0.01264551  0.40879696  0.96600802    -0.03090
C211        C  0.14724755  0.44656010  0.99860136    -0.09720
C212        C  0.14910168  0.46614056  0.94957984     0.06470
C213        C  0.19124026  0.00217535  0.93434592    -0.03490
C214        C  0.22864823  0.00980335  0.96090528    -0.07940
C215        C  0.22532760  0.49153482  0.01040344     0.05590
C216        C  0.18418729  0.45770996  0.02768062    -0.02960
Br217      Br  0.17729667  0.41988807  0.08578756    -0.02660
H218        H  0.11662889  0.42068813  0.01442959     0.09500
H219        H  0.26019075  0.03633212  0.94806097     0.07520
Br220      Br  0.20318635  0.06005538  0.91722279    -0.03090
C221        C  0.18097240  0.24543922  0.92717782    -0.09720
C222        C  0.16043730  0.19994947  0.91719645     0.06470
C223        C  0.17919825  0.17689536  0.94060640    -0.03490
C224        C  0.21702422  0.19937889  0.97043614    -0.07940
C225        C  0.23474279  0.24366026  0.98403786     0.05590
C226        C  0.21578100  0.26638689  0.96197231    -0.02960
Br227      Br  0.23091781  0.32310024  0.98509870    -0.02660
H228        H  0.16680657  0.26398984  0.91201405     0.09500
H229        H  0.23001167  0.18063677  0.98827614     0.07520
Br230      Br  0.15130896  0.11429915  0.94688927    -0.03090
C231        C  0.06568098  0.21196085  0.89919763    -0.09720
C232        C  0.08479705  0.18934185  0.92189855     0.06470
C233        C  0.08124211  0.18305246  0.97593536    -0.03490
C234        C  0.06802228  0.20588547  0.00607825    -0.07940
C235        C  0.04545891  0.22530992  0.98553269     0.05590
C236        C  0.04273416  0.22656476  0.93036247    -0.02960
Br237      Br  0.00656266  0.24390918  0.89511844    -0.02660
H238        H  0.06756588  0.21726355  0.85752743     0.09500
H239        H  0.07263174  0.20498386  0.04712425     0.07520
Br240      Br  0.08809365  0.13962590  0.01240425    -0.03090
C241        C  0.47254602  0.16940758  0.50246791    -0.09720
C242        C  0.00614923  0.20824671  0.47983796     0.06470
C243        C  0.01956255  0.20625631  0.42852163    -0.03490
C244        C  0.99597625  0.16790270  0.39985891    -0.07940
C245        C  0.46698151  0.12797633  0.42503289     0.05590
C246        C  0.45865340  0.12942105  0.47844257    -0.02960
Br247      Br  0.43260902  0.07848466  0.52185599    -0.02660
H248        H  0.46398080  0.16913790  0.54301916     0.09500
H249        H  0.00182332  0.16908181  0.35848558     0.07520
Br250      Br  0.07593065  0.24712614  0.40152603    -0.03090
C251        C  0.35201994  0.08403735  0.46883031    -0.09720
C252        C  0.32366772  0.03914620  0.47887076     0.06470
C253        C  0.32170117  0.00988578  0.44083202    -0.03490
C254        C  0.35826039  0.02377322  0.40807779    -0.07940
C255        C  0.38977382  0.06895424  0.40223485     0.05590
C256        C  0.37707514  0.09757554  0.42326159    -0.02960
Br257      Br  0.40007484  0.15692546  0.39867261    -0.02660
H258        H  0.35587011  0.10857040  0.49627597     0.09500
H259        H  0.36219609  0.99850760  0.39281828     0.07520
Br260      Br  0.27646101  0.44924394  0.44197650    -0.03090
C261        C  0.34674075  0.99830718  0.09935919    -0.09720
C262        C  0.32980332  0.02641997  0.09409918     0.06470
C263        C  0.34980248  0.06480071  0.12547313    -0.03490
C264        C  0.38646369  0.07466850  0.15541715    -0.07940
C265        C  0.40939377  0.05269971  0.14809202     0.05590
C266        C  0.38793428  0.01306371  0.12021787    -0.02960
Br267      Br  0.41496332  0.98154193  0.09843482    -0.02660
H268        H  0.33188554  0.96786494  0.07808911     0.09500
H269        H  0.40197753  0.10485208  0.17720826     0.07520
Br270      Br  0.33856844  0.11171657  0.12548790    -0.03090
C271        C  0.02107600  0.20337226  0.11396671    -0.09720
C272        C  0.99991461  0.20094210  0.06692350     0.06470
C273        C  0.46864245  0.15924894  0.04975605    -0.03490
C274        C  0.45981741  0.12184274  0.07806534    -0.07940
C275        C  0.48094064  0.12274307  0.12486305     0.05590
C276        C  0.01639047  0.16488125  0.13815123    -0.02960
Br277      Br  0.07290953  0.17330683  0.15021148    -0.02660
H278        H  0.04912642  0.23481955  0.12348572     0.09500
H279        H  0.43558373  0.09098763  0.06270990     0.07520
Br280      Br  0.43865253  0.15187002  0.98529025    -0.03090
C281        C  0.34471180  0.27993992  0.46672077    -0.09720
C282        C  0.33115030  0.30685450  0.49055257     0.06470
C283        C  0.35303132  0.35145983  0.47579082    -0.03490
C284        C  0.39337242  0.37012158  0.45127984    -0.07940
C285        C  0.40716299  0.34367548  0.42709015     0.05590
C286        C  0.37882879  0.29769783  0.42999159    -0.02960
Br287      Br  0.38815400  0.25849925  0.38841356    -0.02660
H288        H  0.32969923  0.24545797  0.47633007     0.09500
H289        H  0.41367013  0.40542929  0.45207485     0.07520
Br290      Br  0.32728065  0.38707863  0.48307076    -0.03090
C291        C  0.47494497  0.28511934  0.48801911    -0.09720
C292        C  0.01595180  0.29394573  0.47235766     0.06470
C293        C  0.03493940  0.32275929  0.42863596    -0.03490
C294        C  0.01112702  0.33900700  0.40260394    -0.07940
C295        C  0.47758666  0.34106630  0.42890541     0.05590
C296        C  0.46300565  0.31586973  0.47584168    -0.02960
Br297      Br  0.43856812  0.33001973  0.53271585    -0.02660
H298        H  0.45809757  0.26190820  0.51950676     0.09500
H299        H  0.02001670  0.35052219  0.36333526     0.07520
Br300      Br  0.09406830  0.34740695  0.40662906    -0.03090
C301        C  0.33665208  0.30810724  0.11972845    -0.09720
C302        C  0.34161287  0.30289200  0.06617542     0.06470
C303        C  0.38246781  0.31157990  0.04808027    -0.03490
C304        C  0.41814115  0.33172552  0.08025452    -0.07940
C305        C  0.41376933  0.33590960  0.13404298     0.05590
C306        C  0.37130794  0.31985485  0.15426038    -0.02960
Br307      Br  0.35697900  0.30534614  0.22654580    -0.02660
H308        H  0.30535691  0.30081652  0.13500732     0.09500
H309        H  0.44959961  0.34207891  0.06296557     0.07520
Br310      Br  0.39211290  0.29895383  0.97844870    -0.03090
C311        C  0.03856938  0.33537386  0.09373297    -0.09720
C312        C  0.01177434  0.29126362  0.07896299     0.06470
C313        C  0.47021931  0.26735481  0.10321301    -0.03490
C314        C  0.45900995  0.28644433  0.14327924    -0.07940
C315        C  0.48157802  0.33239867  0.14870118     0.05590
C316        C  0.02092873  0.35687677  0.12068158    -0.02960
Br317      Br  0.04015102  0.41517089  0.09663658    -0.02660
H318        H  0.06969553  0.35545123  0.07434329     0.09500
H319        H  0.42698292  0.26722080  0.16104176     0.07520
Br320      Br  0.42167255  0.21755220  0.07276745    -0.03090
C321        C  0.18535707  0.17252189  0.12386285    -0.09720
C322        C  0.21001408  0.15597088  0.14586295     0.06470
C323        C  0.25556523  0.18185973  0.14114255    -0.03490
C324        C  0.27380865  0.21361886  0.10130392    -0.07940
C325        C  0.24922206  0.22947614  0.07638307     0.05590
C326        C  0.20547115  0.21133083  0.09374657    -0.02960
Br327      Br  0.17168687  0.23804071  0.07853683    -0.02660
H328        H  0.15032069  0.15451902  0.12811737     0.09500
H329        H  0.30672550  0.22419097  0.08943155     0.07520
Br330      Br  0.29289642  0.16964035  0.18210577    -0.03090
C331        C  0.22415511  0.02542125  0.12546733    -0.09720
C332        C  0.25139272  0.04381836  0.08171419     0.06470
C333        C  0.25537588  0.08272956  0.06005028    -0.03490
C334        C  0.23306835  0.10166631  0.08259012    -0.07940
C335        C  0.20543605  0.08241048  0.12663625     0.05590
C336        C  0.19479681  0.03919493  0.13820517    -0.02960
Br337      Br  0.13903170  0.99705780  0.11306271    -0.02660
H338        H  0.21793393  0.99426717  0.14078079     0.09500
H339        H  0.23735653  0.13127848  0.06459851     0.07520
Br340      Br  0.29531536  0.11458127  0.00390436    -0.03090
C341        C  0.23569625  0.17587183  0.51077583    -0.09720
C342        C  0.25081860  0.21784852  0.48939843     0.06470
C343        C  0.24679925  0.22162674  0.43466003    -0.03490
C344        C  0.22817187  0.18350194  0.40411121    -0.07940
C345        C  0.20874566  0.14168571  0.42807751     0.05590
C346        C  0.20951820  0.13921905  0.48207108    -0.02960
Br347      Br  0.16628312  0.08909698  0.51822097    -0.02660
H348        H  0.23677420  0.17152261  0.55242282     0.09500
H349        H  0.22739638  0.18633886  0.36223923     0.07520
Br350      Br  0.26071063  0.27562777  0.40001493    -0.03090
C351        C  0.18500329  0.02841080  0.43369430    -0.09720
C352        C  0.21115187  0.07216849  0.41530730     0.06470
C353        C  0.25493213  0.09457241  0.43089156    -0.03490
C354        C  0.26708486  0.07920479  0.47376261    -0.07940
C355        C  0.24314083  0.03517541  0.48986956     0.05590
C356        C  0.20208773  0.00896014  0.46669559    -0.02960
Br357      Br  0.16616647  0.44797451  0.48266226    -0.02660
H358        H  0.15051427  0.01006542  0.42671547     0.09500
H359        H  0.29467989  0.10249090  0.49544455     0.07520
Br360      Br  0.29782081  0.14944857  0.40024915    -0.03090
C361        C  0.15476315  0.58507666  0.37062090     0.00000
C362        C  0.19181749  0.59974444  0.39857324     0.00000
C363        C  0.15726419  0.58929233  0.19714330     0.00000
C364        C  0.18902960  0.60795065  0.15869331     0.00000
O365        O  0.08986074  0.52997049  0.21186235    -0.73510
O366        O  0.01982730  0.95988819  0.32389919    -0.74490
O367        O  0.09155984  0.53054138  0.32815143    -0.63110
O368        O  0.02427570  0.95826991  0.21207392    -0.71520
O369        O  0.04660628  0.91301103  0.23161262    -0.71070
O370        O  0.13920922  0.01101562  0.33493448    -0.62330
O371        O  0.04839363  0.92126975  0.34371217    -0.74840
O372        O  0.13878297  0.01234064  0.22782834    -0.73610
Cu373      Cu  0.05614093  0.99521377  0.26938938     1.04560
Cu374      Cu  0.09528696  0.96183610  0.28356010     1.04330
C375        C  0.12850900  0.53989862  0.20833693     0.92690
C376        C  0.01629098  0.92794596  0.34918217     0.91830
C377        C  0.12803870  0.53920200  0.34505140     0.83970
C378        C  0.01773083  0.91990330  0.21053513     0.90240
C379        C  0.46954059  0.88664673  0.19835342     0.00000
C380        C  0.45453518  0.85182287  0.16544085     0.00000
C381        C  0.47064649  0.90116470  0.37660854     0.00000
C382        C  0.45352652  0.86344084  0.40753031     0.00000
C383        C  0.47667948  0.56106977  0.18971778     0.00000
C384        C  0.45851926  0.57913415  0.15727043     0.00000
C385        C  0.45826753  0.56934659  0.36516490     0.00000
C386        C  0.43862522  0.58714767  0.39430532     0.00000
O387        O  0.03796710  0.62945921  0.34573821    -0.73510
O388        O  0.13080488  0.64299309  0.22474997    -0.74490
O389        O  0.03709425  0.62399140  0.23805123    -0.63110
O390        O  0.13973182  0.64480416  0.34090410    -0.71520
O391        O  0.09247336  0.58737635  0.38207409    -0.71070
O392        O  0.03242165  0.56053481  0.24385584    -0.62330
O393        O  0.12106083  0.58951946  0.27201506    -0.74840
O394        O  0.01852729  0.56088921  0.35738385    -0.73610
Cu395      Cu  0.08869537  0.64106099  0.28878427     1.04560
Cu396      Cu  0.06575516  0.57347388  0.31285165     1.04330
C397        C  0.00852634  0.58989910  0.36080082     0.92690
C398        C  0.13874376  0.61196256  0.23232911     0.91830
C399        C  0.01887905  0.58439296  0.22263991     0.83970
C400        C  0.13103440  0.61120556  0.37049871     0.90240
O401        O  0.46169345  0.92144324  0.26755780    -0.73510
O402        O  0.46333294  0.52946961  0.29822126    -0.74490
O403        O  0.46072417  0.96253806  0.36073635    -0.63110
O404        O  0.47209415  0.49328304  0.20929544    -0.71520
O405        O  0.41172095  0.99258325  0.22297543    -0.71070
O406        O  0.40601044  0.90129246  0.33624846    -0.62330
O407        O  0.40298681  0.98881358  0.33697575    -0.74840
O408        O  0.40878435  0.90466282  0.21730721    -0.73730
Cu409      Cu  0.46705045  0.97788457  0.28414324     1.04560
Cu410      Cu  0.40055222  0.94322890  0.27816866     1.04330
C411        C  0.44235774  0.90178134  0.22815492     0.92690
C412        C  0.43722503  0.52737901  0.33167702     0.91830
C413        C  0.44168987  0.92123969  0.36252023     0.83970
C414        C  0.45057906  0.51216891  0.20312930     0.90240
C415        C  0.11512985  0.67890282  0.89351974     0.00000
C416        C  0.10206257  0.65200010  0.85117012     0.00000
C417        C  0.10833955  0.94053304  0.91479416     0.00000
C418        C  0.09589498  0.95828019  0.87522631     0.00000
C419        C  0.42898416  0.98201372  0.87816764     0.00000
C420        C  0.39107917  0.96076368  0.90659449     0.00000
C421        C  0.10751069  0.93002291  0.66357310     0.00000
C422        C  0.08950360  0.94461009  0.70099196     0.00000
O423        O  0.07439988  0.56237716  0.73635921    -0.73510
O424        O  0.09909573  0.52390330  0.86833143    -0.74490
O425        O  0.08544764  0.58077758  0.84507820    -0.63110
O426        O  0.09157507  0.49848189  0.75606991    -0.71520
O427        O  0.15196376  0.52543759  0.71786493    -0.71070
O428        O  0.15307954  0.62459281  0.82042150    -0.62330
O429        O  0.15278956  0.52665131  0.82752493    -0.74840
O430        O  0.14160774  0.60806595  0.71182230    -0.73610
Cu431      Cu  0.08604028  0.53998614  0.80093877     1.04560
Cu432      Cu  0.15546776  0.57467525  0.77050993     1.04330
C433        C  0.10081911  0.59493304  0.70804560     0.92690
C434        C  0.12118545  0.50684416  0.86102153     0.91830
C435        C  0.11733116  0.61905254  0.84170653     0.83970
C436        C  0.11432886  0.49169404  0.72559165     0.90240
C437        C  0.08033419  0.61806294  0.67867561     0.00000
C438        C  0.10259713  0.65580902  0.64990966     0.00000
C439        C  0.40289374  0.95747057  0.70518999     0.00000
C440        C  0.37429990  0.94333538  0.66470098     0.00000
O441        O  0.05571864  0.60929924  0.78625174    -0.73510
O442        O  0.44309397  0.50304682  0.77067326    -0.74490
O443        O  0.01009549  0.55902485  0.70159726    -0.63110
O444        O  0.49154118  0.55011703  0.85632883    -0.71520
O445        O  0.43178865  0.54792361  0.83705470    -0.71070
O446        O  0.51746910  0.62301158  0.71211652    -0.62330
O447        O  0.42629489  0.53949354  0.71959077    -0.74840
O448        O  0.52295567  0.63484035  0.82931827    -0.73610
Cu449      Cu  0.50126874  0.55385221  0.77894869     1.04560
Cu450      Cu  0.47161162  0.59017349  0.77412255     1.04330
C451        C  0.05858105  0.63452118  0.82108639     0.92690
C452        C  0.42165240  0.50197403  0.73258472     0.91830
C453        C  0.03195439  0.59960293  0.69169394     0.83970
C454        C  0.45087901  0.53090293  0.86249861     0.90240
O455        O  0.02974740  0.95272056  0.70474636    -0.73510
O456        O  0.48490937  0.98311563  0.82639647    -0.74490
O457        O  0.04545111  0.96255614  0.82025688    -0.63110
O458        O  0.47183402  0.96928620  0.71715465    -0.71520
O459        O  0.42389710  0.90266765  0.74324661    -0.71070
O460        O  0.51591603  0.89869139  0.85273030    -0.62330
O461        O  0.43680902  0.91665762  0.85201672    -0.74840
O462        O  0.51686759  0.89427704  0.74619955    -0.73610
Cu463      Cu  0.50926190  0.96827826  0.76753689     1.04560
Cu464      Cu  0.46979528  0.89788314  0.79771238     1.04330
C465        C  0.04111456  0.92551545  0.71346281     0.92690
C466        C  0.45119207  0.95835607  0.85335883     0.91830
C467        C  0.04989171  0.93681860  0.84930737     0.83970
C468        C  0.43276840  0.93910036  0.71939263     0.90240
C469        C  0.26621582  0.76038850  0.02895408     0.00000
C470        C  0.30822412  0.79696901  0.02643616     0.00000
C471        C  0.02523645  0.77720191  0.03018666     0.00000
C472        C  0.02189030  0.73677856  0.02597279     0.00000
C473        C  0.26104817  0.51524538  0.04845524     0.00000
C474        C  0.30058192  0.51693550  0.04666610     0.00000
C475        C  0.25927824  0.51942404  0.53536985     0.00000
C476        C  0.30001460  0.52321556  0.53062568     0.00000
C477        C  0.03549699  0.74263021  0.51757635     0.00000
C478        C  0.04062043  0.78392818  0.51253445     0.00000
C479        C  0.25836969  0.75206099  0.52914461     0.00000
C480        C  0.29691337  0.79094100  0.53304781     0.00000
C481        C  0.35191810  0.83600891  0.59887816    -0.09720
C482        C  0.30977714  0.82036360  0.58011503     0.06470
C483        C  0.28722677  0.84083439  0.59837985    -0.03490
C484        C  0.30786224  0.87657840  0.63225312    -0.07940
C485        C  0.35274537  0.89702706  0.64329478     0.05590
C486        C  0.37495990  0.87604681  0.62467663    -0.02960
Br487      Br  0.43702133  0.90360917  0.61754421    -0.02660
H488        H  0.36914786  0.82007494  0.58643162     0.09500
H489        H  0.28988167  0.89175307  0.64534489     0.07520
Br490      Br  0.23214224  0.82791822  0.57139651    -0.03090
C491        C  0.34211796  0.99443804  0.65737626    -0.09720
C492        C  0.36336354  0.97373465  0.63556832     0.06470
C493        C  0.36940116  0.97694158  0.58172111    -0.03490
C494        C  0.34616579  0.98963562  0.55052409    -0.07940
C495        C  0.32284052  0.00890096  0.57015065     0.05590
C496        C  0.32545539  0.51536135  0.62498427    -0.02960
Br497      Br  0.31116731  0.55498152  0.65722125    -0.02660
H498        H  0.33904634  0.49500804  0.69918404     0.09500
H499        H  0.34979081  0.98626920  0.50997776     0.07520
Br500      Br  0.41322218  0.96946877  0.54811372    -0.03090
C501        C  0.22434359  0.73166157  0.62176035    -0.09720
C502        C  0.22090948  0.73541658  0.56725810     0.06470
C503        C  0.17940486  0.71059182  0.54591383    -0.03490
C504        C  0.14853343  0.67413537  0.57278679    -0.07940
C505        C  0.14739351  0.67406380  0.62709769     0.05590
C506        C  0.18631115  0.70466551  0.65219234    -0.02960
Br507      Br  0.18858288  0.71158464  0.72599107    -0.02660
H508        H  0.25543843  0.75012749  0.64059647     0.09500
H509        H  0.12170149  0.65039746  0.55083648     0.07520
Br510      Br  0.16332007  0.72293715  0.47939421    -0.03090
C511        C  0.05624975  0.68710977  0.54193035    -0.09720
C512        C  0.05506192  0.72483332  0.55819034     0.06470
C513        C  0.06613733  0.73584624  0.61200749    -0.03490
C514        C  0.08283180  0.71399565  0.64137365    -0.07940
C515        C  0.07809761  0.67454334  0.62458420     0.05590
C516        C  0.05832730  0.65834471  0.57698757    -0.02960
Br517      Br  0.03754707  0.59870505  0.55609620    -0.02660
H518        H  0.05091220  0.67642000  0.50217238     0.09500
H519        H  0.09619828  0.72556074  0.67957448     0.07520
Br520      Br  0.05187375  0.76909303  0.65702705    -0.03090
C521        C  0.20133833  0.02112234  0.58881174    -0.09720
C522        C  0.22893882  0.00357246  0.58296348     0.06470
C523        C  0.22038087  0.96788736  0.61689629    -0.03490
C524        C  0.18722659  0.95323064  0.65529995    -0.07940
C525        C  0.15387731  0.96289649  0.64878112     0.05590
C526        C  0.16167040  0.99775062  0.61555437    -0.02960
Br527      Br  0.11508180  0.00808815  0.59907225    -0.02660
H528        H  0.20711645  0.54929864  0.56599673     0.09500
H529        H  0.18045327  0.92515034  0.67952609     0.07520
Br530      Br  0.23724350  0.92601975  0.60107777    -0.03090
C531        C  0.11391069  0.88244445  0.59298375    -0.09720
C532        C  0.08564359  0.88844427  0.62765573     0.06470
C533        C  0.04049079  0.85500765  0.62223355    -0.03490
C534        C  0.02792766  0.82137382  0.58604402    -0.07940
C535        C  0.05737222  0.81676984  0.55470065     0.05590
C536        C  0.10093643  0.84713943  0.55965682    -0.02960
Br537      Br  0.14399949  0.84104353  0.52199860    -0.02660
H538        H  0.14734783  0.90556066  0.58794683     0.09500
H539        H  0.99429034  0.79569783  0.58555513     0.07520
Br540      Br  0.98871618  0.84499169  0.65649369    -0.03090
C541        C  0.34276792  0.87673415  0.90455995    -0.09720
C542        C  0.37492226  0.91552152  0.92782693     0.06470
C543        C  0.38646453  0.91277476  0.97821647    -0.03490
C544        C  0.35844520  0.87740430  0.00964937    -0.07940
C545        C  0.32677602  0.83655404  0.98834661     0.05590
C546        C  0.32263685  0.83633273  0.93293114    -0.02960
Br547      Br  0.29941322  0.78468035  0.89154560    -0.02660
H548        H  0.33560807  0.87742217  0.86382696     0.09500
H549        H  0.36588703  0.88076662  0.05060335     0.07520
Br550      Br  0.44550466  0.95032479  0.99854307    -0.03090
C551        C  0.32250215  0.95864580  0.93206476    -0.09720
C552        C  0.36822987  0.98301477  0.93003755     0.06470
C553        C  0.38890625  0.02166770  0.95989756    -0.03490
C554        C  0.36362489  0.53474310  0.98821593    -0.07940
C555        C  0.31878848  0.00687892  0.99738608     0.05590
C556        C  0.29826975  0.96790273  0.96757354    -0.02960
Br557      Br  0.24040181  0.92035652  0.97712275    -0.02660
H558        H  0.30560528  0.92861616  0.91023347     0.09500
H559        H  0.38015751  0.56438757  0.01011258     0.07520
Br560      Br  0.44990649  0.55298649  0.97514921    -0.03090
C561        C  0.10144119  0.86766039  0.93212314    -0.09720
C562        C  0.08041161  0.89217553  0.92830918     0.06470
C563        C  0.03907779  0.87441360  0.95237456    -0.03490
C564        C  0.01934581  0.83287163  0.97638998    -0.07940
C565        C  0.04307590  0.81187570  0.98725237     0.05590
C566        C  0.08555831  0.83104782  0.96587573    -0.02960
Br567      Br  0.12790006  0.81795376  0.99167514    -0.02660
H568        H  0.13433556  0.88195928  0.91699128     0.09500
H569        H  0.98753062  0.82016863  0.99411968     0.07520
Br570      Br  0.01261373  0.90878000  0.96598542    -0.03090
C571        C  0.14734370  0.94666828  0.99854220    -0.09720
C572        C  0.14912360  0.96617161  0.94949178     0.06470
C573        C  0.19125095  0.50215679  0.93454372    -0.03490
C574        C  0.22860954  0.50974785  0.96119104    -0.07940
C575        C  0.22543904  0.99172092  0.01018257     0.05590
C576        C  0.18433141  0.95791191  0.02757392    -0.02960
Br577      Br  0.17756563  0.92023283  0.08579014    -0.02660
H578        H  0.11675210  0.92079582  0.01443226     0.09500
H579        H  0.26017192  0.53630009  0.94844552     0.07520
Br580      Br  0.20329022  0.56004420  0.91725731    -0.03090
C581        C  0.18097625  0.74547181  0.92715466    -0.09720
C582        C  0.16045061  0.69998182  0.91717672     0.06470
C583        C  0.17922771  0.67693998  0.94058613    -0.03490
C584        C  0.21704703  0.69943328  0.97042501    -0.07940
C585        C  0.23475119  0.74371178  0.98402632     0.05590
C586        C  0.21578740  0.76643154  0.96194507    -0.02960
Br587      Br  0.23092415  0.82315323  0.98504366    -0.02660
H588        H  0.16680423  0.76401503  0.91198571     0.09500
H589        H  0.23004217  0.68070014  0.98827229     0.07520
Br590      Br  0.15139076  0.61434551  0.94684415    -0.03090
C591        C  0.06568876  0.71198299  0.89919326    -0.09720
C592        C  0.08479609  0.68934782  0.92187334     0.06470
C593        C  0.08121127  0.68301284  0.97590015    -0.03490
C594        C  0.06798194  0.70582680  0.00606653    -0.07940
C595        C  0.04544207  0.72528776  0.98554504     0.05590
C596        C  0.04273436  0.72657231  0.93037239    -0.02960
Br597      Br  0.00656305  0.74391916  0.89513402    -0.02660
H598        H  0.06758320  0.71730576  0.85752606     0.09500
H599        H  0.07258598  0.70489504  0.04710608     0.07520
Br600      Br  0.08804847  0.63955326  0.01231212    -0.03090
C601        C  0.47255720  0.66941871  0.50246570    -0.09720
C602        C  0.00616989  0.70825239  0.47983843     0.06470
C603        C  0.01958873  0.70625665  0.42852747    -0.03490
C604        C  0.99600290  0.66790102  0.39986764    -0.07940
C605        C  0.46700404  0.62797645  0.42504349     0.05590
C606        C  0.45866617  0.62942865  0.47844946    -0.02960
Br607      Br  0.43261325  0.57849971  0.52187508    -0.02660
H608        H  0.46398595  0.66915455  0.54301347     0.09500
H609        H  0.00185290  0.66907777  0.35849548     0.07520
Br610      Br  0.07596143  0.74712397  0.40154035    -0.03090
C611        C  0.35202777  0.58402905  0.46881915    -0.09720
C612        C  0.32367765  0.53913833  0.47886747     0.06470
C613        C  0.32172273  0.50987566  0.44083794    -0.03490
C614        C  0.35829349  0.52376389  0.40810534    -0.07940
C615        C  0.38980000  0.56894338  0.40224727     0.05590
C616        C  0.37709199  0.59756429  0.42325655    -0.02960
Br617      Br  0.40009316  0.65691230  0.39865822    -0.02660
H618        H  0.35587458  0.60856612  0.49625826     0.09500
H619        H  0.36225601  0.49848352  0.39287091     0.07520
Br620      Br  0.27643720  0.94925423  0.44196894    -0.03090
C621        C  0.34688272  0.49823088  0.09928354    -0.09720
C622        C  0.32975767  0.52620889  0.09429994     0.06470
C623        C  0.34960365  0.56443983  0.12597202    -0.03490
C624        C  0.38639156  0.57440131  0.15570675    -0.07940
C625        C  0.40944762  0.55260965  0.14811358     0.05590
C626        C  0.38810042  0.51305967  0.12010047    -0.02960
Br627      Br  0.41534238  0.48177896  0.09821207    -0.02660
H628        H  0.33212765  0.46785510  0.07788687     0.09500
H629        H  0.40181948  0.60448596  0.17768777     0.07520
Br630      Br  0.33786375  0.61100355  0.12706998    -0.03090
C631        C  0.02113634  0.70336861  0.11397363    -0.09720
C632        C  0.99993332  0.70095418  0.06696939     0.06470
C633        C  0.46859574  0.65927458  0.04984224    -0.03490
C634        C  0.45971244  0.62186699  0.07818173    -0.07940
C635        C  0.48090035  0.62274486  0.12492022     0.05590
C636        C  0.01642332  0.66485947  0.13813726    -0.02960
Br637      Br  0.07290956  0.67318273  0.15013121    -0.02660
H638        H  0.04922780  0.73479845  0.12345320     0.09500
H639        H  0.43543122  0.59103029  0.06283706     0.07520
Br640      Br  0.43857922  0.65190447  0.98539652    -0.03090
C641        C  0.34470233  0.77992676  0.46674149    -0.09720
C642        C  0.33113202  0.80683745  0.49056415     0.06470
C643        C  0.35300493  0.85144118  0.47579623    -0.03490
C644        C  0.39334714  0.87010775  0.45128787    -0.07940
C645        C  0.40714602  0.84366559  0.42710615     0.05590
C646        C  0.37881979  0.79768684  0.43001336    -0.02960
Br647      Br  0.38815523  0.75849051  0.38844397    -0.02660
H648        H  0.32969505  0.74544618  0.47635643     0.09500
H649        H  0.41363896  0.90541605  0.45207917     0.07520
Br650      Br  0.32724202  0.88705039  0.48306488    -0.03090
C651        C  0.47495231  0.78512610  0.48803430    -0.09720
C652        C  0.01595413  0.79394458  0.47235840     0.06470
C653        C  0.03493013  0.82275400  0.42862962    -0.03490
C654        C  0.01111250  0.83900214  0.40260634    -0.07940
C655        C  0.47757820  0.84106732  0.42891750     0.05590
C656        C  0.46300790  0.81587409  0.47585749    -0.02960
Br657      Br  0.43856116  0.83001311  0.53272995    -0.02660
H658        H  0.45810779  0.76191577  0.51952288     0.09500
H659        H  0.01999222  0.85051071  0.36333328     0.07520
Br660      Br  0.09405069  0.84739180  0.40659402    -0.03090
C661        C  0.33666266  0.80818574  0.11972736    -0.09720
C662        C  0.34161151  0.80294136  0.06617949     0.06470
C663        C  0.38245503  0.81159477  0.04808586    -0.03490
C664        C  0.41813166  0.83172664  0.08025602    -0.07940
C665        C  0.41376876  0.83593450  0.13404091     0.05590
C666        C  0.37131282  0.81990847  0.15425904    -0.02960
Br667      Br  0.35697346  0.80537508  0.22653913    -0.02660
H668        H  0.30537419  0.80091799  0.13500437     0.09500
H669        H  0.44958354  0.84205590  0.06296431     0.07520
Br670      Br  0.39207994  0.79892767  0.97846631    -0.03090
C671        C  0.03852956  0.83539881  0.09367529    -0.09720
C672        C  0.01173677  0.79126243  0.07897496     0.06470
C673        C  0.47021543  0.76734667  0.10333383    -0.03490
C674        C  0.45904011  0.78648880  0.14337183    -0.07940
C675        C  0.48158840  0.83244855  0.14870458     0.05590
C676        C  0.02090854  0.85691776  0.12062774    -0.02960
Br677      Br  0.04015405  0.91523745  0.09661514    -0.02660
H678        H  0.06964275  0.85547293  0.07425556     0.09500
H679        H  0.42704460  0.76727359  0.16121542     0.07520
Br680      Br  0.42161957  0.71735463  0.07321134    -0.03090
C681        C  0.18531555  0.67251889  0.12378354    -0.09720
C682        C  0.20999807  0.65602580  0.14585318     0.06470
C683        C  0.25554512  0.68199388  0.14125852    -0.03490
C684        C  0.27379758  0.71373248  0.10140389    -0.07940
C685        C  0.24919811  0.72953377  0.07639330     0.05590
C686        C  0.20542251  0.71133904  0.09368640    -0.02960
Br687      Br  0.17160772  0.73800576  0.07842498    -0.02660
H688        H  0.15027506  0.65447303  0.12799092     0.09500
H689        H  0.30672772  0.72431491  0.08958945     0.07520
Br690      Br  0.29287746  0.66991004  0.18240384    -0.03090
C691        C  0.22368388  0.52511531  0.12543025    -0.09720
C692        C  0.25123942  0.54356512  0.08194059     0.06470
C693        C  0.25560289  0.58266837  0.06036532    -0.03490
C694        C  0.23344555  0.60179579  0.08284690    -0.07940
C695        C  0.20554354  0.58250279  0.12668195     0.05590
C696        C  0.19450010  0.53914272  0.13798309    -0.02960
Br697      Br  0.13874702  0.49755568  0.11230590    -0.02660
H698        H  0.21716549  0.49384822  0.14068273     0.09500
H699        H  0.23801906  0.63153496  0.06491403     0.07520
Br700      Br  0.29586269  0.61448215  0.00447632    -0.03090
C701        C  0.23568414  0.67584904  0.51077897    -0.09720
C702        C  0.25080804  0.71782803  0.48940596     0.06470
C703        C  0.24680158  0.72161096  0.43466549    -0.03490
C704        C  0.22819185  0.68349062  0.40411004    -0.07940
C705        C  0.20876717  0.64167151  0.42806846     0.05590
C706        C  0.20952229  0.63919744  0.48206292    -0.02960
Br707      Br  0.16627892  0.58906631  0.51819356    -0.02660
H708        H  0.23675027  0.67149492  0.55242675     0.09500
H709        H  0.22742628  0.68633254  0.36223762     0.07520
Br710      Br  0.26070444  0.77561028  0.40002234    -0.03090
C711        C  0.18502428  0.52839441  0.43366496    -0.09720
C712        C  0.21117567  0.57215566  0.41528782     0.06470
C713        C  0.25495139  0.59456052  0.43088767    -0.03490
C714        C  0.26709363  0.57919310  0.47376684    -0.07940
C715        C  0.24314899  0.53516328  0.48986832     0.05590
C716        C  0.20210070  0.50894541  0.46668417    -0.02960
Br717      Br  0.16615844  0.94798719  0.48265220    -0.02660
H718        H  0.15053871  0.51004580  0.42666325     0.09500
H719        H  0.29468286  0.60247856  0.49545844     0.07520
Br720      Br  0.29784489  0.64944018  0.40025800    -0.03090
C721        C  0.65472833  0.08507828  0.37065099     0.00000
C722        C  0.69178952  0.09975401  0.39859260     0.00000
C723        C  0.65724596  0.08926372  0.19718027     0.00000
C724        C  0.68898912  0.10788627  0.15871076     0.00000
O725        O  0.58984242  0.02995283  0.21187022    -0.73510
O726        O  0.51985200  0.45988990  0.32388023    -0.74490
O727        O  0.59153260  0.03054104  0.32817391    -0.63110
O728        O  0.52428722  0.45826064  0.21205574    -0.71520
O729        O  0.54662496  0.41300325  0.23156932    -0.71070
O730        O  0.63924785  0.51102652  0.33486091    -0.62330
O731        O  0.54842306  0.42127272  0.34366802    -0.74840
O732        O  0.63879460  0.51232656  0.22771118    -0.73610
Cu733      Cu  0.55616178  0.49521486  0.26936960     1.04560
Cu734      Cu  0.59531252  0.46183737  0.28349266     1.04330
C735        C  0.62849277  0.03988482  0.20838077     0.92690
C736        C  0.51631860  0.42794653  0.34915547     0.91830
C737        C  0.62800493  0.03919933  0.34509391     0.83970
C738        C  0.51774206  0.41989266  0.21051170     0.90240
C739        C  0.96955058  0.38662919  0.19833815     0.00000
C740        C  0.95453372  0.35178726  0.16544503     0.00000
C741        C  0.97067199  0.40116519  0.37658969     0.00000
C742        C  0.95354413  0.36344357  0.40751421     0.00000
C743        C  0.97662979  0.06106651  0.18970244     0.00000
C744        C  0.95848403  0.07915293  0.15725744     0.00000
C745        C  0.95823625  0.06934601  0.36515786     0.00000
C746        C  0.93859771  0.08715161  0.39429311     0.00000
O747        O  0.53793453  0.12945522  0.34571931    -0.73510
O748        O  0.63078685  0.14297654  0.22475220    -0.74490
O749        O  0.53706739  0.12398015  0.23802798    -0.63110
O750        O  0.63969971  0.14480139  0.34090707    -0.71520
O751        O  0.59243389  0.08737582  0.38207260    -0.71070
O752        O  0.53237966  0.06051936  0.24383868    -0.62330
O753        O  0.62102589  0.08950481  0.27202728    -0.74840
O754        O  0.51849118  0.06088439  0.35737203    -0.73610
Cu755      Cu  0.58866707  0.14105088  0.28877272     1.04560
Cu756      Cu  0.56571714  0.07346395  0.31284586     1.04330
C757        C  0.50849377  0.08989672  0.36078793     0.92690
C758        C  0.63872394  0.11194608  0.23234633     0.91830
C759        C  0.51884140  0.08438139  0.22261834     0.83970
C760        C  0.63099818  0.11120617  0.37050991     0.90240
O761        O  0.96171201  0.42142613  0.26755242    -0.73510
O762        O  0.96329335  0.02947094  0.29821265    -0.74490
O763        O  0.96075003  0.46253675  0.36073454    -0.63110
O764        O  0.97204096  0.99328207  0.20928575    -0.71520
O765        O  0.91176719  0.49257670  0.22296440    -0.71070
O766        O  0.90603407  0.40129404  0.33624388    -0.62330
O767        O  0.90301341  0.48881879  0.33696400    -0.74840
O768        O  0.90880217  0.40465198  0.21730415    -0.73730
Cu769      Cu  0.96708412  0.47787901  0.28414611     1.04560
Cu770      Cu  0.90058084  0.44322746  0.27816113     1.04330
C771        C  0.94237265  0.40176533  0.22814906     0.92690
C772        C  0.93719055  0.02737737  0.33167612     0.91830
C773        C  0.94171572  0.42124004  0.36251168     0.83970
C774        C  0.95052708  0.01217135  0.20312490     0.90240
C775        C  0.61511679  0.17887806  0.89354750     0.00000
C776        C  0.60204878  0.15198469  0.85118953     0.00000
C777        C  0.60835125  0.44054579  0.91481175     0.00000
C778        C  0.59593004  0.45832801  0.87525921     0.00000
C779        C  0.92893035  0.48201798  0.87820201     0.00000
C780        C  0.89101828  0.46076221  0.90662520     0.00000
C781        C  0.60751892  0.43002086  0.66359751     0.00000
C782        C  0.58952110  0.44461654  0.70102375     0.00000
O783        O  0.57438520  0.06240586  0.73632425    -0.73510
O784        O  0.59899043  0.02382185  0.86824903    -0.74490
O785        O  0.58540517  0.08075505  0.84505294    -0.63110
O786        O  0.59151135  0.99849774  0.75596573    -0.71520
O787        O  0.65194433  0.02542370  0.71787048    -0.71070
O788        O  0.65305016  0.12456447  0.82043519    -0.62330
O789        O  0.65273467  0.02661833  0.82749828    -0.74840
O790        O  0.64160350  0.10807692  0.71181534    -0.73610
Cu791      Cu  0.58598221  0.03997126  0.80087654     1.04560
Cu792      Cu  0.65543647  0.07465794  0.77050645     1.04330
C793        C  0.60081866  0.09496105  0.70802530     0.92690
C794        C  0.62111311  0.00679231  0.86096748     0.91830
C795        C  0.61730110  0.11902622  0.84171397     0.83970
C796        C  0.61428909  0.99169539  0.72554248     0.90240
C797        C  0.58034464  0.11810349  0.67866003     0.00000
C798        C  0.60261306  0.15584995  0.64990049     0.00000
C799        C  0.90289043  0.45747099  0.70520628     0.00000
C800        C  0.87430385  0.44333710  0.66471229     0.00000
O801        O  0.55574287  0.10935042  0.78621070    -0.73510
O802        O  0.94313998  0.00306058  0.77063017    -0.74490
O803        O  0.51009955  0.05906110  0.70154333    -0.63110
O804        O  0.99158491  0.05011212  0.85627624    -0.71520
O805        O  0.93181814  0.04791013  0.83704158    -0.71070
O806        O  0.01746951  0.12303963  0.71210533    -0.62330
O807        O  0.92629633  0.03949491  0.71958506    -0.74840
O808        O  0.02294995  0.13483168  0.82932619    -0.73610
Cu809      Cu  0.00130077  0.05387765  0.77889929     1.04560
Cu810      Cu  0.97161667  0.09017508  0.77411735     1.04330
C811        C  0.55858515  0.13453619  0.82108055     0.92690
C812        C  0.92167241  0.00197979  0.73256351     0.91830
C813        C  0.53195944  0.09964137  0.69166289     0.83970
C814        C  0.95092385  0.03089385  0.86246142     0.90240
O815        O  0.52980224  0.45279703  0.70483831    -0.73510
O816        O  0.98487158  0.48313397  0.82644692    -0.74490
O817        O  0.54546781  0.46266922  0.82037291    -0.63110
O818        O  0.97183078  0.46929601  0.71720037    -0.71520
O819        O  0.92389433  0.40267477  0.74327664    -0.71070
O820        O  0.01595561  0.39875465  0.85272391    -0.62330
O821        O  0.93679234  0.41667077  0.85205508    -0.74840
O822        O  0.01686466  0.39430067  0.74621736    -0.73610
Cu823      Cu  0.00926460  0.46832591  0.76761347     1.04560
Cu824      Cu  0.96980443  0.39791662  0.79773749     1.04330
C825        C  0.54113354  0.42555488  0.71350891     0.92690
C826        C  0.95115389  0.45836583  0.85340024     0.91830
C827        C  0.54991918  0.43689747  0.84935427     0.83970
C828        C  0.93276665  0.43910609  0.71942178     0.90240
C829        C  0.76622284  0.26033658  0.02894980     0.00000
C830        C  0.80822686  0.29692639  0.02643217     0.00000
C831        C  0.52528196  0.27722490  0.03017551     0.00000
C832        C  0.52189177  0.23678497  0.02594126     0.00000
C833        C  0.76119977  0.01552649  0.04815917     0.00000
C834        C  0.80068626  0.01712623  0.04643722     0.00000
C835        C  0.75927197  0.01943381  0.53536932     0.00000
C836        C  0.80000608  0.02322167  0.53062580     0.00000
C837        C  0.53547582  0.24262695  0.51757516     0.00000
C838        C  0.54060761  0.28392766  0.51253901     0.00000
C839        C  0.75838573  0.25208301  0.52913561     0.00000
C840        C  0.79693178  0.29095993  0.53303744     0.00000
C841        C  0.85193379  0.33602276  0.59887359    -0.09720
C842        C  0.80979482  0.32038018  0.58010580     0.06470
C843        C  0.78724161  0.34084691  0.59837377    -0.03490
C844        C  0.80787163  0.37658330  0.63225714    -0.07940
C845        C  0.85275337  0.39703119  0.64330342     0.05590
C846        C  0.87497120  0.37605544  0.62468324    -0.02960
Br847      Br  0.93703324  0.40362044  0.61756731    -0.02660
H848        H  0.86916511  0.32009100  0.58642555     0.09500
H849        H  0.78988915  0.39175495  0.64535196     0.07520
Br850      Br  0.73216347  0.32794001  0.57137959    -0.03090
C851        C  0.84212055  0.49443770  0.65738363    -0.09720
C852        C  0.86337032  0.47373730  0.63557941     0.06470
C853        C  0.86941760  0.47694995  0.58173452    -0.03490
C854        C  0.84618249  0.48964036  0.55053318    -0.07940
C855        C  0.82285091  0.50890073  0.57015444     0.05590
C856        C  0.82544940  0.01536098  0.62498059    -0.02960
Br857      Br  0.81116357  0.05498112  0.65722191    -0.02660
H858        H  0.83904940  0.99501104  0.69917719     0.09500
H859        H  0.84981417  0.48627550  0.50998887     0.07520
Br860      Br  0.91325063  0.46949009  0.54813770    -0.03090
C861        C  0.72436161  0.23168566  0.62175416    -0.09720
C862        C  0.72092731  0.23544228  0.56725166     0.06470
C863        C  0.67942188  0.21062180  0.54590882    -0.03490
C864        C  0.64855080  0.17416572  0.57278093    -0.07940
C865        C  0.64740880  0.17409704  0.62709113     0.05590
C866        C  0.68632787  0.20469370  0.65218653    -0.02960
Br867      Br  0.68859996  0.21160621  0.72598645    -0.02660
H868        H  0.75545718  0.25014683  0.64058984     0.09500
H869        H  0.62172086  0.15042733  0.55082940     0.07520
Br870      Br  0.66333441  0.22297106  0.47939336    -0.03090
C871        C  0.55626186  0.18713280  0.54191108    -0.09720
C872        C  0.55504513  0.22483721  0.55818100     0.06470
C873        C  0.56608586  0.23583495  0.61200461    -0.03490
C874        C  0.58280947  0.21401144  0.64136828    -0.07940
C875        C  0.57811209  0.17457697  0.62456583     0.05590
C876        C  0.55834835  0.15837348  0.57696657    -0.02960
Br877      Br  0.53757134  0.09873292  0.55607946    -0.02660
H878        H  0.55092966  0.17644799  0.50215077     0.09500
H879        H  0.59615031  0.22556909  0.67958048     0.07520
Br880      Br  0.55167176  0.26896582  0.65702426    -0.03090
C881        C  0.70133510  0.52110809  0.58880302    -0.09720
C882        C  0.72894259  0.50356499  0.58296429     0.06470
C883        C  0.72039060  0.46788888  0.61690948    -0.03490
C884        C  0.68724020  0.45323892  0.65531833    -0.07940
C885        C  0.65388356  0.46289293  0.64879046     0.05590
C886        C  0.66166922  0.49773763  0.61555172    -0.02960
Br887      Br  0.61507590  0.50806876  0.59907387    -0.02660
H888        H  0.70712471  0.04931847  0.56601270     0.09500
H889        H  0.68047456  0.42516748  0.67955709     0.07520
Br890      Br  0.73725650  0.42602172  0.60110463    -0.03090
C891        C  0.61391565  0.38241209  0.59303827    -0.09720
C892        C  0.58565006  0.38843883  0.62768362     0.06470
C893        C  0.54049392  0.35502775  0.62223413    -0.03490
C894        C  0.52792196  0.32140019  0.58603269    -0.07940
C895        C  0.55736210  0.31677019  0.55471011     0.05590
C896        C  0.60093096  0.34711226  0.55969848    -0.02960
Br897      Br  0.64398589  0.34099954  0.52204581    -0.02660
H898        H  0.64736251  0.40550216  0.58803096     0.09500
H899        H  0.49427686  0.29574648  0.58552323     0.07520
Br900      Br  0.48873212  0.34504419  0.65648974    -0.03090
C901        C  0.84269873  0.37672156  0.90457780    -0.09720
C902        C  0.87486227  0.41550951  0.92783631     0.06470
C903        C  0.88644999  0.41274913  0.97819598    -0.03490
C904        C  0.85845975  0.37737078  0.00964107    -0.07940
C905        C  0.82677208  0.33652195  0.98834901     0.05590
C906        C  0.82259906  0.33631265  0.93293808    -0.02960
Br907      Br  0.79938525  0.28467012  0.89153646    -0.02660
H908        H  0.83551237  0.37741429  0.86385541     0.09500
H909        H  0.86594003  0.38072852  0.05058436     0.07520
Br910      Br  0.94553280  0.45024218  0.99839017    -0.03090
C911        C  0.82242826  0.45860982  0.93212269    -0.09720
C912        C  0.86815455  0.48300100  0.93008601     0.06470
C913        C  0.88880784  0.52165644  0.95995093    -0.03490
C914        C  0.86374562  0.03479446  0.98812599    -0.07940
C915        C  0.81867947  0.50677492  0.99752599     0.05590
C916        C  0.79818291  0.46781993  0.96766828    -0.02960
Br917      Br  0.74031993  0.42025028  0.97714960    -0.02660
H918        H  0.80554393  0.42859380  0.91026478     0.09500
H919        H  0.88029433  0.06443609  0.01002045     0.07520
Br920      Br  0.94999997  0.05294113  0.97513074    -0.03090
C921        C  0.60143073  0.36765297  0.93204155    -0.09720
C922        C  0.58040784  0.39217673  0.92826348     0.06470
C923        C  0.53908909  0.37442208  0.95236417    -0.03490
C924        C  0.51937162  0.33289146  0.97640291    -0.07940
C925        C  0.54310593  0.31189733  0.98724155     0.05590
C926        C  0.58556873  0.33105169  0.96581084    -0.02960
Br927      Br  0.62792267  0.31795515  0.99155467    -0.02660
H928        H  0.63431661  0.38194760  0.91688297     0.09500
H929        H  0.48756793  0.32019736  0.99416155     0.07520
Br930      Br  0.51264552  0.40879697  0.96600801    -0.03090
C931        C  0.64724756  0.44656011  0.99860135    -0.09720
C932        C  0.64910169  0.46614057  0.94957983     0.06470
C933        C  0.69124024  0.00217534  0.93434594    -0.03490
C934        C  0.72864821  0.00980334  0.96090530    -0.07940
C935        C  0.72532761  0.49153483  0.01040343     0.05590
C936        C  0.68418730  0.45770997  0.02768062    -0.02960
Br937      Br  0.67729668  0.41988809  0.08578756    -0.02660
H938        H  0.61662890  0.42068814  0.01442958     0.09500
H939        H  0.76019073  0.03633211  0.94806100     0.07520
Br940      Br  0.70318633  0.06005537  0.91722281    -0.03090
C941        C  0.68097241  0.24543921  0.92717783    -0.09720
C942        C  0.66043730  0.19994946  0.91719647     0.06470
C943        C  0.67919824  0.17689535  0.94060643    -0.03490
C944        C  0.71702422  0.19937888  0.97043616    -0.07940
C945        C  0.73474279  0.24366025  0.98403788     0.05590
C946        C  0.71578100  0.26638688  0.96197232    -0.02960
Br947      Br  0.73091781  0.32310023  0.98509870    -0.02660
H948        H  0.66680658  0.26398983  0.91201405     0.09500
H949        H  0.73001167  0.18063675  0.98827618     0.07520
Br950      Br  0.65130894  0.11429914  0.94688931    -0.03090
C951        C  0.56568098  0.21196083  0.89919764    -0.09720
C952        C  0.58479706  0.18934185  0.92189858     0.06470
C953        C  0.58124214  0.18305250  0.97593540    -0.03490
C954        C  0.56802230  0.20588551  0.00607827    -0.07940
C955        C  0.54545893  0.22530994  0.98553270     0.05590
C956        C  0.54273416  0.22656476  0.93036247    -0.02960
Br957      Br  0.50656266  0.24390916  0.89511844    -0.02660
H958        H  0.56756587  0.21726352  0.85752744     0.09500
H959        H  0.57263178  0.20498392  0.04712427     0.07520
Br960      Br  0.58809371  0.13962596  0.01240433    -0.03090
C961        C  0.97254602  0.16940758  0.50246790    -0.09720
C962        C  0.50614923  0.20824670  0.47983796     0.06470
C963        C  0.51956256  0.20625631  0.42852163    -0.03490
C964        C  0.49597625  0.16790269  0.39985891    -0.07940
C965        C  0.96698151  0.12797633  0.42503289     0.05590
C966        C  0.95865340  0.12942105  0.47844257    -0.02960
Br967      Br  0.93260902  0.07848466  0.52185599    -0.02660
H968        H  0.96398081  0.16913790  0.54301916     0.09500
H969        H  0.50182332  0.16908181  0.35848558     0.07520
Br970      Br  0.57593066  0.24712613  0.40152605    -0.03090
C971        C  0.85201995  0.08403736  0.46883032    -0.09720
C972        C  0.82366772  0.03914621  0.47887077     0.06470
C973        C  0.82170117  0.00988579  0.44083203    -0.03490
C974        C  0.85826039  0.02377323  0.40807778    -0.07940
C975        C  0.88977382  0.06895425  0.40223485     0.05590
C976        C  0.87707515  0.09757555  0.42326159    -0.02960
Br977      Br  0.90007485  0.15692548  0.39867262    -0.02660
H978        H  0.85587012  0.10857041  0.49627598     0.09500
H979        H  0.86219607  0.99850762  0.39281825     0.07520
Br980      Br  0.77646102  0.44924393  0.44197650    -0.03090
C981        C  0.84674074  0.99830716  0.09935919    -0.09720
C982        C  0.82980330  0.02641995  0.09409919     0.06470
C983        C  0.84980245  0.06480068  0.12547316    -0.03490
C984        C  0.88646367  0.07466847  0.15541718    -0.07940
C985        C  0.90939375  0.05269968  0.14809203     0.05590
C986        C  0.88793428  0.01306370  0.12021786    -0.02960
Br987      Br  0.91496332  0.98154193  0.09843481    -0.02660
H988        H  0.83188554  0.96786493  0.07808909     0.09500
H989        H  0.90197750  0.10485204  0.17720830     0.07520
Br990      Br  0.83856840  0.11171653  0.12548798    -0.03090
C991        C  0.52107599  0.20337228  0.11396672    -0.09720
C992        C  0.49991461  0.20094211  0.06692350     0.06470
C993        C  0.96864243  0.15924893  0.04975607    -0.03490
C994        C  0.95981737  0.12184274  0.07806535    -0.07940
C995        C  0.98094062  0.12274306  0.12486305     0.05590
C996        C  0.51639047  0.16488128  0.13815125    -0.02960
Br997      Br  0.57290954  0.17330690  0.15021154    -0.02660
H998        H  0.54912639  0.23481957  0.12348574     0.09500
H999        H  0.93558368  0.09098763  0.06270992     0.07520
Br1000     Br  0.93865251  0.15187003  0.98529026    -0.03090
C1001       C  0.84471180  0.27993992  0.46672077    -0.09720
C1002       C  0.83115030  0.30685450  0.49055256     0.06470
C1003       C  0.85303133  0.35145983  0.47579081    -0.03490
C1004       C  0.89337242  0.37012158  0.45127982    -0.07940
C1005       C  0.90716299  0.34367548  0.42709013     0.05590
C1006       C  0.87882879  0.29769783  0.42999158    -0.02960
Br1007     Br  0.88815399  0.25849925  0.38841355    -0.02660
H1008       H  0.82969924  0.24545797  0.47633007     0.09500
H1009       H  0.91367012  0.40542930  0.45207484     0.07520
Br1010     Br  0.82728066  0.38707864  0.48307076    -0.03090
C1011       C  0.97494497  0.28511935  0.48801911    -0.09720
C1012       C  0.51595180  0.29394572  0.47235766     0.06470
C1013       C  0.53493940  0.32275928  0.42863596    -0.03490
C1014       C  0.51112702  0.33900700  0.40260394    -0.07940
C1015       C  0.97758666  0.34106630  0.42890540     0.05590
C1016       C  0.96300565  0.31586974  0.47584167    -0.02960
Br1017     Br  0.93856812  0.33001974  0.53271584    -0.02660
H1018       H  0.95809757  0.26190820  0.51950676     0.09500
H1019       H  0.52001669  0.35052218  0.36333527     0.07520
Br1020     Br  0.59406829  0.34740693  0.40662904    -0.03090
C1021       C  0.83665209  0.30810724  0.11972846    -0.09720
C1022       C  0.84161288  0.30289200  0.06617543     0.06470
C1023       C  0.88246782  0.31157989  0.04808027    -0.03490
C1024       C  0.91814116  0.33172552  0.08025452    -0.07940
C1025       C  0.91376934  0.33590960  0.13404299     0.05590
C1026       C  0.87130795  0.31985485  0.15426038    -0.02960
Br1027     Br  0.85697901  0.30534614  0.22654580    -0.02660
H1028       H  0.80535692  0.30081652  0.13500732     0.09500
H1029       H  0.94959962  0.34207890  0.06296557     0.07520
Br1030     Br  0.89211291  0.29895383  0.97844870    -0.03090
C1031       C  0.53856938  0.33537387  0.09373296    -0.09720
C1032       C  0.51177434  0.29126363  0.07896298     0.06470
C1033       C  0.97021931  0.26735480  0.10321303    -0.03490
C1034       C  0.95900996  0.28644433  0.14327925    -0.07940
C1035       C  0.98157803  0.33239866  0.14870119     0.05590
C1036       C  0.52092872  0.35687678  0.12068157    -0.02960
Br1037     Br  0.54015100  0.41517090  0.09663658    -0.02660
H1038       H  0.56969552  0.35545125  0.07434328     0.09500
H1039       H  0.92698293  0.26722080  0.16104178     0.07520
Br1040     Br  0.92167254  0.21755219  0.07276748    -0.03090
C1041       C  0.68535708  0.17252191  0.12386287    -0.09720
C1042       C  0.71001409  0.15597089  0.14586297     0.06470
C1043       C  0.75556524  0.18185974  0.14114257    -0.03490
C1044       C  0.77380866  0.21361887  0.10130394    -0.07940
C1045       C  0.74922208  0.22947615  0.07638309     0.05590
C1046       C  0.70547117  0.21133085  0.09374660    -0.02960
Br1047     Br  0.67168691  0.23804075  0.07853688    -0.02660
H1048       H  0.65032070  0.15451904  0.12811740     0.09500
H1049       H  0.80672551  0.22419098  0.08943156     0.07520
Br1050     Br  0.79289643  0.16964036  0.18210580    -0.03090
C1051       C  0.72415508  0.02542123  0.12546734    -0.09720
C1052       C  0.75139270  0.04381834  0.08171421     0.06470
C1053       C  0.75537589  0.08272955  0.06005030    -0.03490
C1054       C  0.73306838  0.10166632  0.08259014    -0.07940
C1055       C  0.70543606  0.08241049  0.12663626     0.05590
C1056       C  0.69479680  0.03919493  0.13820517    -0.02960
Br1057     Br  0.63903168  0.99705784  0.11306267    -0.02660
H1058       H  0.71793389  0.99426715  0.14078079     0.09500
H1059       H  0.73735657  0.13127850  0.06459854     0.07520
Br1060     Br  0.79531538  0.11458126  0.00390439    -0.03090
C1061       C  0.73569626  0.17587183  0.51077583    -0.09720
C1062       C  0.75081860  0.21784852  0.48939843     0.06470
C1063       C  0.74679925  0.22162674  0.43466004    -0.03490
C1064       C  0.72817187  0.18350194  0.40411122    -0.07940
C1065       C  0.70874566  0.14168570  0.42807752     0.05590
C1066       C  0.70951820  0.13921905  0.48207109    -0.02960
Br1067     Br  0.66628312  0.08909698  0.51822098    -0.02660
H1068       H  0.73677421  0.17152261  0.55242283     0.09500
H1069       H  0.72739637  0.18633885  0.36223924     0.07520
Br1070     Br  0.76071063  0.27562777  0.40001493    -0.03090
C1071       C  0.68500328  0.02841079  0.43369432    -0.09720
C1072       C  0.71115186  0.07216848  0.41530731     0.06470
C1073       C  0.75493212  0.09457240  0.43089155    -0.03490
C1074       C  0.76708486  0.07920479  0.47376261    -0.07940
C1075       C  0.74314083  0.03517541  0.48986957     0.05590
C1076       C  0.70208773  0.00896014  0.46669561    -0.02960
Br1077     Br  0.66616647  0.44797451  0.48266222    -0.02660
H1078       H  0.65051426  0.01006542  0.42671549     0.09500
H1079       H  0.79467989  0.10249090  0.49544454     0.07520
Br1080     Br  0.79782080  0.14944855  0.40024913    -0.03090
C1081       C  0.65476315  0.58507666  0.37062089     0.00000
C1082       C  0.69181749  0.59974444  0.39857324     0.00000
C1083       C  0.65726417  0.58929233  0.19714330     0.00000
C1084       C  0.68902959  0.60795064  0.15869331     0.00000
O1085       O  0.58986073  0.52997048  0.21186235    -0.73510
O1086       O  0.51982730  0.95988819  0.32389919    -0.74490
O1087       O  0.59155984  0.53054138  0.32815143    -0.63110
O1088       O  0.52427571  0.95826992  0.21207392    -0.71520
O1089       O  0.54660629  0.91301103  0.23161262    -0.71070
O1090       O  0.63920922  0.01101562  0.33493448    -0.62330
O1091       O  0.54839364  0.92126975  0.34371217    -0.74840
O1092       O  0.63878298  0.01234065  0.22782834    -0.73610
Cu1093     Cu  0.55614093  0.99521378  0.26938939     1.04560
Cu1094     Cu  0.59528696  0.96183611  0.28356010     1.04330
C1095       C  0.62850899  0.53989861  0.20833693     0.92690
C1096       C  0.51629098  0.92794596  0.34918217     0.91830
C1097       C  0.62803870  0.53920201  0.34505140     0.83970
C1098       C  0.51773085  0.91990330  0.21053513     0.90240
C1099       C  0.96954058  0.88664673  0.19835342     0.00000
C1100       C  0.95453516  0.85182287  0.16544085     0.00000
C1101       C  0.97064649  0.90116470  0.37660855     0.00000
C1102       C  0.95352652  0.86344084  0.40753032     0.00000
C1103       C  0.97667950  0.56106979  0.18971777     0.00000
C1104       C  0.95851928  0.57913417  0.15727043     0.00000
C1105       C  0.95826754  0.56934659  0.36516489     0.00000
C1106       C  0.93862523  0.58714767  0.39430533     0.00000
O1107       O  0.53796710  0.62945921  0.34573821    -0.73510
O1108       O  0.63080487  0.64299309  0.22474996    -0.74490
O1109       O  0.53709423  0.62399139  0.23805123    -0.63110
O1110       O  0.63973181  0.64480416  0.34090409    -0.71520
O1111       O  0.59247336  0.58737635  0.38207409    -0.71070
O1112       O  0.53242164  0.56053481  0.24385585    -0.62330
O1113       O  0.62106082  0.58951945  0.27201505    -0.74840
O1114       O  0.51852728  0.56088921  0.35738386    -0.73610
Cu1115     Cu  0.58869536  0.64106099  0.28878426     1.04560
Cu1116     Cu  0.56575515  0.57347388  0.31285166     1.04330
C1117       C  0.50852634  0.58989910  0.36080082     0.92690
C1118       C  0.63874375  0.61196256  0.23232910     0.91830
C1119       C  0.51887904  0.58439295  0.22263992     0.83970
C1120       C  0.63103440  0.61120557  0.37049871     0.90240
O1121       O  0.96169344  0.92144324  0.26755781    -0.73510
O1122       O  0.96333294  0.52946962  0.29822125    -0.74490
O1123       O  0.96072417  0.96253806  0.36073635    -0.63110
O1124       O  0.97209416  0.49328305  0.20929542    -0.71520
O1125       O  0.91172094  0.99258324  0.22297544    -0.71070
O1126       O  0.90601044  0.90129246  0.33624847    -0.62330
O1127       O  0.90298681  0.98881358  0.33697576    -0.74840
O1128       O  0.90878434  0.90466281  0.21730722    -0.73730
Cu1129     Cu  0.96705044  0.97788456  0.28414324     1.04560
Cu1130     Cu  0.90055222  0.94322889  0.27816868     1.04330
C1131       C  0.94235773  0.90178133  0.22815493     0.92690
C1132       C  0.93722504  0.52737902  0.33167701     0.91830
C1133       C  0.94168987  0.92123969  0.36252024     0.83970
C1134       C  0.95057907  0.51216893  0.20312928     0.90240
C1135       C  0.61512985  0.67890283  0.89351970     0.00000
C1136       C  0.60206257  0.65200011  0.85117009     0.00000
C1137       C  0.60833954  0.94053303  0.91479417     0.00000
C1138       C  0.59589497  0.95828017  0.87522632     0.00000
C1139       C  0.92898416  0.98201373  0.87816764     0.00000
C1140       C  0.89107916  0.96076369  0.90659449     0.00000
C1141       C  0.60751070  0.93002290  0.66357311     0.00000
C1142       C  0.58950361  0.94461008  0.70099197     0.00000
O1143       O  0.57439988  0.56237716  0.73635919    -0.73510
O1144       O  0.59909574  0.52390332  0.86833142    -0.74490
O1145       O  0.58544764  0.58077759  0.84507818    -0.63110
O1146       O  0.59157507  0.49848189  0.75606991    -0.71520
O1147       O  0.65196375  0.52543759  0.71786491    -0.71070
O1148       O  0.65307954  0.62459282  0.82042147    -0.62330
O1149       O  0.65278956  0.52665132  0.82752491    -0.74840
O1150       O  0.64160773  0.60806595  0.71182228    -0.73610
Cu1151     Cu  0.58604028  0.53998615  0.80093876     1.04560
Cu1152     Cu  0.65546776  0.57467525  0.77050990     1.04330
C1153       C  0.60081911  0.59493303  0.70804558     0.92690
C1154       C  0.62118546  0.50684417  0.86102151     0.91830
C1155       C  0.61733116  0.61905255  0.84170650     0.83970
C1156       C  0.61432886  0.49169404  0.72559164     0.90240
C1157       C  0.58033418  0.61806294  0.67867559     0.00000
C1158       C  0.60259713  0.65580902  0.64990964     0.00000
C1159       C  0.90289373  0.95747057  0.70518999     0.00000
C1160       C  0.87429990  0.94333538  0.66470098     0.00000
O1161       O  0.55571864  0.60929924  0.78625172    -0.73510
O1162       O  0.94309397  0.50304682  0.77067327    -0.74490
O1163       O  0.51009548  0.55902485  0.70159724    -0.63110
O1164       O  0.99154118  0.55011703  0.85632884    -0.71520
O1165       O  0.93178865  0.54792361  0.83705471    -0.71070
O1166       O  0.01746910  0.62301159  0.71211654    -0.62330
O1167       O  0.92629490  0.53949354  0.71959078    -0.74840
O1168       O  0.02295567  0.63484034  0.82931830    -0.73610
Cu1169     Cu  0.00126874  0.55385221  0.77894871     1.04560
Cu1170     Cu  0.97161163  0.59017348  0.77412257     1.04330
C1171       C  0.55858105  0.63452118  0.82108636     0.92690
C1172       C  0.92165241  0.50197403  0.73258473     0.91830
C1173       C  0.53195438  0.59960293  0.69169392     0.83970
C1174       C  0.95087901  0.53090292  0.86249862     0.90240
O1175       O  0.52974739  0.95272054  0.70474636    -0.73510
O1176       O  0.98490936  0.98311564  0.82639648    -0.74490
O1177       O  0.54545111  0.96255611  0.82025687    -0.63110
O1178       O  0.97183402  0.96928621  0.71715466    -0.71520
O1179       O  0.92389709  0.90266766  0.74324662    -0.71070
O1180       O  0.01591604  0.89869141  0.85273029    -0.62330
O1181       O  0.93680902  0.91665764  0.85201673    -0.74840
O1182       O  0.01686758  0.89427705  0.74619954    -0.73610
Cu1183     Cu  0.00926190  0.96827828  0.76753690     1.04560
Cu1184     Cu  0.96979528  0.89788316  0.79771238     1.04330
C1185       C  0.54111457  0.92551544  0.71346282     0.92690
C1186       C  0.95119207  0.95835609  0.85335883     0.91830
C1187       C  0.54989170  0.93681858  0.84930737     0.83970
C1188       C  0.93276839  0.93910037  0.71939263     0.90240
C1189       C  0.76621580  0.76038850  0.02895406     0.00000
C1190       C  0.80822411  0.79696901  0.02643615     0.00000
C1191       C  0.52523645  0.77720189  0.03018667     0.00000
C1192       C  0.52189030  0.73677854  0.02597280     0.00000
C1193       C  0.76104818  0.51524539  0.04845523     0.00000
C1194       C  0.80058193  0.51693552  0.04666610     0.00000
C1195       C  0.75927823  0.51942403  0.53536984     0.00000
C1196       C  0.80001460  0.52321555  0.53062567     0.00000
C1197       C  0.53549698  0.74263021  0.51757635     0.00000
C1198       C  0.54062043  0.78392819  0.51253445     0.00000
C1199       C  0.75836969  0.75206099  0.52914461     0.00000
C1200       C  0.79691337  0.79094100  0.53304781     0.00000
C1201       C  0.85191811  0.83600891  0.59887817    -0.09720
C1202       C  0.80977715  0.82036360  0.58011504     0.06470
C1203       C  0.78722677  0.84083439  0.59837985    -0.03490
C1204       C  0.80786224  0.87657840  0.63225312    -0.07940
C1205       C  0.85274537  0.89702707  0.64329479     0.05590
C1206       C  0.87495990  0.87604681  0.62467664    -0.02960
Br1207     Br  0.93702134  0.90360917  0.61754423    -0.02660
H1208       H  0.86914786  0.82007494  0.58643163     0.09500
H1209       H  0.78988167  0.89175307  0.64534489     0.07520
Br1210     Br  0.73214224  0.82791823  0.57139651    -0.03090
C1211       C  0.84211797  0.99443805  0.65737626    -0.09720
C1212       C  0.86336354  0.97373465  0.63556832     0.06470
C1213       C  0.86940115  0.97694158  0.58172111    -0.03490
C1214       C  0.84616579  0.98963562  0.55052409    -0.07940
C1215       C  0.82284053  0.00890097  0.57015066     0.05590
C1216       C  0.82545538  0.51536135  0.62498427    -0.02960
Br1217     Br  0.81116730  0.55498151  0.65722124    -0.02660
H1218       H  0.83904634  0.49500804  0.69918404     0.09500
H1219       H  0.84979081  0.98626920  0.50997776     0.07520
Br1220     Br  0.91322217  0.96946877  0.54811372    -0.03090
C1221       C  0.72434359  0.73166157  0.62176035    -0.09720
C1222       C  0.72090948  0.73541658  0.56725810     0.06470
C1223       C  0.67940487  0.71059183  0.54591383    -0.03490
C1224       C  0.64853343  0.67413538  0.57278679    -0.07940
C1225       C  0.64739351  0.67406381  0.62709768     0.05590
C1226       C  0.68631114  0.70466552  0.65219234    -0.02960
Br1227     Br  0.68858287  0.71158464  0.72599107    -0.02660
H1228       H  0.75543842  0.75012749  0.64059647     0.09500
H1229       H  0.62170150  0.65039746  0.55083647     0.07520
Br1230     Br  0.66332007  0.72293716  0.47939421    -0.03090
C1231       C  0.55624977  0.68710979  0.54193032    -0.09720
C1232       C  0.55506191  0.72483332  0.55819033     0.06470
C1233       C  0.56613729  0.73584621  0.61200749    -0.03490
C1234       C  0.58283177  0.71399564  0.64137365    -0.07940
C1235       C  0.57809761  0.67454334  0.62458418     0.05590
C1236       C  0.55832732  0.65834472  0.57698754    -0.02960
Br1237     Br  0.53754709  0.59870506  0.55609616    -0.02660
H1238       H  0.55091224  0.67642003  0.50217235     0.09500
H1239       H  0.59619821  0.72556071  0.67957450     0.07520
Br1240     Br  0.55187358  0.76909291  0.65702705    -0.03090
C1241       C  0.70133833  0.02112234  0.58881175    -0.09720
C1242       C  0.72893883  0.00357247  0.58296349     0.06470
C1243       C  0.72038088  0.96788737  0.61689631    -0.03490
C1244       C  0.68722661  0.95323066  0.65529997    -0.07940
C1245       C  0.65387732  0.96289649  0.64878113     0.05590
C1246       C  0.66167040  0.99775062  0.61555438    -0.02960
Br1247     Br  0.61508179  0.00808814  0.59907225    -0.02660
H1248       H  0.70711645  0.54929863  0.56599672     0.09500
H1249       H  0.68045330  0.92515036  0.67952612     0.07520
Br1250     Br  0.73724351  0.92601976  0.60107778    -0.03090
C1251       C  0.61391071  0.88244441  0.59298381    -0.09720
C1252       C  0.58564360  0.88844426  0.62765576     0.06470
C1253       C  0.54049080  0.85500766  0.62223355    -0.03490
C1254       C  0.52792766  0.82137383  0.58604401    -0.07940
C1255       C  0.55737222  0.81676984  0.55470066     0.05590
C1256       C  0.60093644  0.84713940  0.55965685    -0.02960
Br1257     Br  0.64399949  0.84104350  0.52199863    -0.02660
H1258       H  0.64734786  0.90556060  0.58794693     0.09500
H1259       H  0.49429034  0.79569787  0.58555509     0.07520
Br1260     Br  0.48871618  0.84499172  0.65649365    -0.03090
C1261       C  0.84276791  0.87673416  0.90455995    -0.09720
C1262       C  0.87492225  0.91552153  0.92782692     0.06470
C1263       C  0.88646453  0.91277476  0.97821647    -0.03490
C1264       C  0.85844520  0.87740430  0.00964936    -0.07940
C1265       C  0.82677601  0.83655405  0.98834660     0.05590
C1266       C  0.82263684  0.83633274  0.93293113    -0.02960
Br1267     Br  0.79941321  0.78468036  0.89154559    -0.02660
H1268       H  0.83560806  0.87742218  0.86382696     0.09500
H1269       H  0.86588703  0.88076662  0.05060334     0.07520
Br1270     Br  0.94550465  0.95032480  0.99854306    -0.03090
C1271       C  0.82250214  0.95864581  0.93206475    -0.09720
C1272       C  0.86822986  0.98301478  0.93003755     0.06470
C1273       C  0.88890624  0.02166770  0.95989756    -0.03490
C1274       C  0.86362490  0.53474310  0.98821594    -0.07940
C1275       C  0.81878847  0.00687892  0.99738609     0.05590
C1276       C  0.79826973  0.96790273  0.96757354    -0.02960
Br1277     Br  0.74040180  0.92035652  0.97712274    -0.02660
H1278       H  0.80560527  0.92861616  0.91023346     0.09500
H1279       H  0.88015752  0.56438757  0.01011259     0.07520
Br1280     Br  0.94990650  0.55298648  0.97514921    -0.03090
C1281       C  0.60144118  0.86766037  0.93212316    -0.09720
C1282       C  0.58041160  0.89217552  0.92830919     0.06470
C1283       C  0.53907778  0.87441358  0.95237457    -0.03490
C1284       C  0.51934581  0.83287162  0.97639001    -0.07940
C1285       C  0.54307590  0.81187568  0.98725238     0.05590
C1286       C  0.58555830  0.83104780  0.96587574    -0.02960
Br1287     Br  0.62790005  0.81795374  0.99167514    -0.02660
H1288       H  0.63433556  0.88195926  0.91699130     0.09500
H1289       H  0.48753061  0.82016862  0.99411970     0.07520
Br1290     Br  0.51261372  0.90877998  0.96598543    -0.03090
C1291       C  0.64734369  0.94666827  0.99854222    -0.09720
C1292       C  0.64912358  0.96617160  0.94949180     0.06470
C1293       C  0.69125096  0.50215680  0.93454371    -0.03490
C1294       C  0.72860955  0.50974786  0.96119102    -0.07940
C1295       C  0.72543902  0.99172091  0.01018260     0.05590
C1296       C  0.68433140  0.95791189  0.02757393    -0.02960
Br1297     Br  0.67756561  0.92023281  0.08579015    -0.02660
H1298       H  0.61675209  0.92079580  0.01443228     0.09500
H1299       H  0.76017193  0.53630009  0.94844550     0.07520
Br1300     Br  0.70329024  0.56004421  0.91725728    -0.03090
C1301       C  0.68097624  0.74547182  0.92715465    -0.09720
C1302       C  0.66045061  0.69998183  0.91717670     0.06470
C1303       C  0.67922771  0.67693999  0.94058610    -0.03490
C1304       C  0.71704703  0.69943329  0.97042498    -0.07940
C1305       C  0.73475118  0.74371178  0.98402630     0.05590
C1306       C  0.71578739  0.76643155  0.96194506    -0.02960
Br1307     Br  0.73092413  0.82315323  0.98504365    -0.02660
H1308       H  0.66680421  0.76401504  0.91198571     0.09500
H1309       H  0.73004217  0.68070016  0.98827226     0.07520
Br1310     Br  0.65139077  0.61434552  0.94684411    -0.03090
C1311       C  0.56568876  0.71198300  0.89919324    -0.09720
C1312       C  0.58479607  0.68934782  0.92187331     0.06470
C1313       C  0.58121124  0.68301279  0.97590011    -0.03490
C1314       C  0.56798191  0.70582675  0.00606651    -0.07940
C1315       C  0.54544206  0.72528774  0.98554503     0.05590
C1316       C  0.54273436  0.72657231  0.93037239    -0.02960
Br1317     Br  0.50656305  0.74391917  0.89513403    -0.02660
H1318       H  0.56758321  0.71730579  0.85752605     0.09500
H1319       H  0.57258594  0.70489496  0.04710606     0.07520
Br1320     Br  0.58804840  0.63955318  0.01231204    -0.03090
C1321       C  0.97255719  0.66941872  0.50246570    -0.09720
C1322       C  0.50616989  0.70825239  0.47983843     0.06470
C1323       C  0.51958872  0.70625665  0.42852746    -0.03490
C1324       C  0.49600289  0.66790102  0.39986764    -0.07940
C1325       C  0.96700405  0.62797645  0.42504350     0.05590
C1326       C  0.95866617  0.62942865  0.47844946    -0.02960
Br1327     Br  0.93261324  0.57849971  0.52187509    -0.02660
H1328       H  0.96398594  0.66915456  0.54301347     0.09500
H1329       H  0.50185289  0.66907777  0.35849547     0.07520
Br1330     Br  0.57596141  0.74712399  0.40154033    -0.03090
C1331       C  0.85202777  0.58402904  0.46881913    -0.09720
C1332       C  0.82367764  0.53913833  0.47886746     0.06470
C1333       C  0.82172274  0.50987565  0.44083794    -0.03490
C1334       C  0.85829351  0.52376388  0.40810536    -0.07940
C1335       C  0.88980000  0.56894337  0.40224727     0.05590
C1336       C  0.87709199  0.59756428  0.42325654    -0.02960
Br1337     Br  0.90009316  0.65691228  0.39865819    -0.02660
H1338       H  0.85587457  0.60856611  0.49625824     0.09500
H1339       H  0.86225605  0.49848350  0.39287096     0.07520
Br1340     Br  0.77643720  0.94925424  0.44196894    -0.03090
C1341       C  0.84688272  0.49823090  0.09928355    -0.09720
C1342       C  0.82975768  0.52620891  0.09429994     0.06470
C1343       C  0.84960367  0.56443986  0.12597200    -0.03490
C1344       C  0.88639158  0.57440135  0.15570673    -0.07940
C1345       C  0.90944764  0.55260968  0.14811357     0.05590
C1346       C  0.88810043  0.51305970  0.12010047    -0.02960
Br1347     Br  0.91534238  0.48177898  0.09821207    -0.02660
H1348       H  0.83212765  0.46785511  0.07788689     0.09500
H1349       H  0.90181951  0.60448600  0.17768774     0.07520
Br1350     Br  0.83786377  0.61100358  0.12706993    -0.03090
C1351       C  0.52113635  0.70336858  0.11397363    -0.09720
C1352       C  0.49993332  0.70095416  0.06696941     0.06470
C1353       C  0.96859576  0.65927458  0.04984222    -0.03490
C1354       C  0.95971247  0.62186700  0.07818171    -0.07940
C1355       C  0.98090037  0.62274489  0.12492021     0.05590
C1356       C  0.51642332  0.66485944  0.13813725    -0.02960
Br1357     Br  0.57290955  0.67318264  0.15013115    -0.02660
H1358       H  0.54922783  0.73479842  0.12345319     0.09500
H1359       H  0.93543126  0.59103029  0.06283704     0.07520
Br1360     Br  0.93857924  0.65190447  0.98539650    -0.03090
C1361       C  0.84470234  0.77992676  0.46674150    -0.09720
C1362       C  0.83113202  0.80683745  0.49056415     0.06470
C1363       C  0.85300493  0.85144119  0.47579624    -0.03490
C1364       C  0.89334714  0.87010775  0.45128788    -0.07940
C1365       C  0.90714602  0.84366560  0.42710616     0.05590
C1366       C  0.87881979  0.79768684  0.43001338    -0.02960
Br1367     Br  0.88815524  0.75849052  0.38844399    -0.02660
H1368       H  0.82969506  0.74544619  0.47635645     0.09500
H1369       H  0.91363896  0.90541605  0.45207918     0.07520
Br1370     Br  0.82724202  0.88705039  0.48306488    -0.03090
C1371       C  0.97495231  0.78512611  0.48803432    -0.09720
C1372       C  0.51595413  0.79394459  0.47235840     0.06470
C1373       C  0.53493014  0.82275401  0.42862963    -0.03490
C1374       C  0.51111250  0.83900214  0.40260634    -0.07940
C1375       C  0.97757821  0.84106732  0.42891751     0.05590
C1376       C  0.96300791  0.81587411  0.47585750    -0.02960
Br1377     Br  0.93856118  0.83001313  0.53272997    -0.02660
H1378       H  0.95810779  0.76191578  0.51952289     0.09500
H1379       H  0.51999222  0.85051072  0.36333328     0.07520
Br1380     Br  0.59405070  0.84739183  0.40659405    -0.03090
C1381       C  0.83666264  0.80818574  0.11972735    -0.09720
C1382       C  0.84161149  0.80294136  0.06617948     0.06470
C1383       C  0.88245501  0.81159477  0.04808586    -0.03490
C1384       C  0.91813164  0.83172664  0.08025602    -0.07940
C1385       C  0.91376875  0.83593450  0.13404091     0.05590
C1386       C  0.87131280  0.81990847  0.15425904    -0.02960
Br1387     Br  0.85697344  0.80537508  0.22653912    -0.02660
H1388       H  0.80537417  0.80091799  0.13500437     0.09500
H1389       H  0.94958352  0.84205591  0.06296431     0.07520
Br1390     Br  0.89207993  0.79892767  0.97846631    -0.03090
C1391       C  0.53852957  0.83539879  0.09367531    -0.09720
C1392       C  0.51173677  0.79126241  0.07897498     0.06470
C1393       C  0.97021542  0.76734668  0.10333381    -0.03490
C1394       C  0.95904011  0.78648880  0.14337181    -0.07940
C1395       C  0.98158839  0.83244855  0.14870456     0.05590
C1396       C  0.52090855  0.85691775  0.12062776    -0.02960
Br1397     Br  0.54015407  0.91523743  0.09661515    -0.02660
H1398       H  0.56964276  0.85547291  0.07425558     0.09500
H1399       H  0.92704459  0.76727359  0.16121540     0.07520
Br1400     Br  0.92161957  0.71735464  0.07321131    -0.03090
C1401       C  0.68531553  0.67251887  0.12378351    -0.09720
C1402       C  0.70999806  0.65602579  0.14585316     0.06470
C1403       C  0.75554511  0.68199387  0.14125850    -0.03490
C1404       C  0.77379756  0.71373248  0.10140388    -0.07940
C1405       C  0.74919809  0.72953377  0.07639328     0.05590
C1406       C  0.70542248  0.71133902  0.09368636    -0.02960
Br1407     Br  0.67160767  0.73800571  0.07842492    -0.02660
H1408       H  0.65027504  0.65447301  0.12799089     0.09500
H1409       H  0.80672770  0.72431491  0.08958944     0.07520
Br1410     Br  0.79287745  0.66991004  0.18240383    -0.03090
C1411       C  0.72368389  0.52511532  0.12543025    -0.09720
C1412       C  0.75123943  0.54356513  0.08194058     0.06470
C1413       C  0.75560289  0.58266838  0.06036531    -0.03490
C1414       C  0.73344553  0.60179579  0.08284689    -0.07940
C1415       C  0.70554353  0.58250278  0.12668194     0.05590
C1416       C  0.69450010  0.53914272  0.13798310    -0.02960
Br1417     Br  0.63874703  0.49755565  0.11230593    -0.02660
H1418       H  0.71716552  0.49384824  0.14068273     0.09500
H1419       H  0.73801903  0.63153494  0.06491401     0.07520
Br1420     Br  0.79586267  0.61448216  0.00447630    -0.03090
C1421       C  0.73568414  0.67584904  0.51077897    -0.09720
C1422       C  0.75080804  0.71782804  0.48940596     0.06470
C1423       C  0.74680158  0.72161097  0.43466549    -0.03490
C1424       C  0.72819185  0.68349063  0.40411004    -0.07940
C1425       C  0.70876717  0.64167151  0.42806846     0.05590
C1426       C  0.70952229  0.63919744  0.48206292    -0.02960
Br1427     Br  0.66627892  0.58906632  0.51819355    -0.02660
H1428       H  0.73675027  0.67149492  0.55242675     0.09500
H1429       H  0.72742628  0.68633255  0.36223762     0.07520
Br1430     Br  0.76070445  0.77561029  0.40002235    -0.03090
C1431       C  0.68502428  0.52839442  0.43366495    -0.09720
C1432       C  0.71117567  0.57215567  0.41528782     0.06470
C1433       C  0.75495139  0.59456053  0.43088768    -0.03490
C1434       C  0.76709363  0.57919310  0.47376684    -0.07940
C1435       C  0.74314899  0.53516328  0.48986832     0.05590
C1436       C  0.70210070  0.50894541  0.46668416    -0.02960
Br1437     Br  0.66615843  0.94798719  0.48265225    -0.02660
H1438       H  0.65053871  0.51004580  0.42666324     0.09500
H1439       H  0.79468285  0.60247856  0.49545845     0.07520
Br1440     Br  0.79784490  0.64944019  0.40025802    -0.03090
loop_ 
_geom_bond_atom_site_label_1 
_geom_bond_atom_site_label_2 
_geom_bond_distance 
_geom_bond_site_symmetry_2 
_ccdc_geom_bond_type 
C1            C2   1.363       .  D
C1           C17   1.560       .  S
C1           C40   1.541       .  S
C2          C345   1.503       .  S
C2          C352   1.516       .  S
C3            C4   1.384       .  D
C3           C15   1.533       .  S
C3           C38   1.567       .  S
C4          C322   1.501       .  S
C4          C335   1.547       .  S
O5           C15   1.242       .  A
O5         Cu373   1.894   1_545  S
O6           C16   1.247       .  A
O6          Cu13   1.872       .  S
O7           C17   1.258       .  A
O7         Cu373   1.975   1_545  S
O8           C18   1.257       .  A
O8          Cu13   1.930       .  S
O9           C18   1.295       .  A
O9          Cu14   2.193       .  S
O10         C377   1.279       .  A
O10         Cu14   2.128       .  S
O11          C16   1.291       .  A
O11         Cu14   2.177       .  S
O12         C375   1.301       .  A
O12         Cu14   2.182       .  S
Cu13        O365   1.894       .  S
Cu13        O367   1.975       .  S
Cu13        Cu14   2.273       .  S
C15         O372   1.301       .  A
C16         C741   1.567   1_455  S
C17         O370   1.279       .  A
C18         C739   1.548   1_455  S
C19          C20   1.371       .  D
C19          C51   1.534       .  S
C19         C738   1.548       .  S
C20         C305   1.509       .  S
C20         C315   1.507       .  S
C21          C22   1.389       .  D
C21          C53   1.567       .  S
C21         C736   1.567       .  S
C22         C285   1.514       .  S
C22         C295   1.535       .  S
C23          C24   1.394       .  D
C23          C54   1.525       .  S
C23         C759   1.560       .  S
C24         C265   1.531       .  S
C24         C275   1.557       .  S
C25          C26   1.382       .  D
C25          C52   1.553       .  S
C25         C757   1.560       .  S
C26         C245   1.511       .  S
C26         C255   1.533       .  S
O27          C37   1.304       .  A
O27         Cu35   2.192       .  S
O28          C38   1.280       .  A
O28         Cu35   2.203       .  S
O29          C39   1.277       .  A
O29         Cu35   2.091       .  S
O30          C40   1.301       .  A
O30         Cu35   2.218       .  S
O31          C40   1.227       .  A
O31         Cu36   1.970       .  S
O32          C39   1.286       .  A
O32         Cu36   2.065       .  S
O33          C38   1.240       .  A
O33         Cu36   2.039       .  S
O34          C37   1.252       .  A
O34         Cu36   1.888       .  S
Cu35        Cu36   2.178       .  S
C37         C745   1.560   1_455  S
C39         C743   1.560   1_455  S
O41          C51   1.234       .  A
O41         Cu49   1.961       .  S
O42          C52   1.240       .  A
O42        Cu409   1.937   1_545  S
O43          C53   1.260       .  A
O43         Cu49   2.019       .  S
O44          C54   1.259   1_565  A
O44        Cu409   1.978       .  S
O45         C414   1.293       .  A
O45         Cu50   2.111       .  S
O46          C53   1.297       .  A
O46         Cu50   2.173       .  S
O47         C412   1.292       .  A
O47         Cu50   2.195       .  S
O48          C51   1.286       .  A
O48         Cu50   2.204       .  S
Cu49        O402   1.937       .  S
Cu49        O404   1.978       .  S
Cu49        Cu50   2.053       .  S
C52         O407   1.292   1_545  A
C54         O405   1.293   1_545  A
C55          C56   1.374       .  D
C55         C222   1.529       .  S
C55         C232   1.501       .  S
C56          C75   1.540       .  S
C56          C91   1.561       .  S
C57          C58   1.379       .  D
C57         C202   1.513       .  S
C57         C212   1.558       .  S
C58         C107   1.573       .  S
C58         C434   1.517       .  S
C59          C60   1.370       .  D
C59         C106   1.557       .  S
C59         C454   1.540       .  S
C60         C182   1.494       .  S
C60         C192   1.521       .  S
C61          C62   1.398       .  D
C61         C165   1.505       .  S
C61         C172   1.580       .  S
C62         C105   1.533       .  S
C62         C436   1.577       .  S
O63          C73   1.271       .  A
O63         Cu71   1.968       .  S
O64          C74   1.229       .  A
O64         Cu71   1.950       .  S
O65          C75   1.251       .  A
O65         Cu71   1.856       .  S
O66          C76   1.238       .  A
O66         Cu71   1.966   1_565  S
O67          C76   1.277   1_545  A
O67         Cu72   2.173       .  S
O68          C75   1.306       .  A
O68         Cu72   2.233       .  S
O69          C74   1.296       .  A
O69         Cu72   2.197       .  S
O70          C73   1.289       .  A
O70         Cu72   2.118       .  S
Cu71        Cu72   2.266       .  S
C73          C77   1.542       .  S
C74         C418   1.517   1_545  S
C76         C422   1.577       .  S
C77          C78   1.362       .  D
C77          C93   1.539       .  S
C78         C145   1.501       .  S
C78         C155   1.489       .  S
C79          C80   1.371       .  D
C79         C108   1.550       .  S
C79         C452   1.543       .  S
C80         C125   1.524       .  S
C80         C132   1.512       .  S
O81          C91   1.240       .  A
O81        Cu809   1.948       .  S
O82          C92   1.236       .  A
O82         Cu89   1.951       .  S
O83          C93   1.259       .  A
O83        Cu809   2.005       .  S
O84          C94   1.260       .  A
O84         Cu89   2.011       .  S
O85          C94   1.293       .  A
O85         Cu90   2.154       .  S
O86         C813   1.295       .  A
O86         Cu90   2.139       .  S
O87          C92   1.292       .  A
O87         Cu90   2.220       .  S
O88         C811   1.295       .  A
O88         Cu90   2.236       .  S
Cu89        O801   1.948       .  S
Cu89        O803   2.005       .  S
Cu89        Cu90   2.044       .  S
C91         O808   1.295       .  A
C92         C439   1.543   1_545  S
C93         O806   1.295       .  A
C94         C419   1.540   1_545  S
O95         C105   1.240       .  A
O95        Cu823   1.968       .  S
O96         C106   1.266       .  A
O96        Cu103   1.949       .  S
O97         C107   1.244       .  A
O97        Cu823   1.957       .  S
O98         C108   1.254       .  A
O98        Cu103   1.880       .  S
O99         C108   1.305       .  A
O99        Cu104   2.231       .  S
O100        C827   1.277       .  A
O100       Cu104   2.166       .  S
O101        C106   1.294       .  A
O101       Cu104   2.143       .  S
O102        C825   1.296       .  A
O102       Cu104   2.192       .  S
Cu103       O815   1.968       .  S
Cu103       O817   1.957       .  S
Cu103      Cu104   2.273       .  S
C105        O822   1.296       .  A
C107        O820   1.277       .  A
C109        C110   1.397       .  D
C109        C225   1.516   1_554  S
C109        C325   1.529       .  S
C110        C185   1.543   1_554  S
C110        C302   1.507       .  S
C111        C112   1.380       .  D
C111        C205   1.516   1_554  S
C111        C312   1.520       .  S
C112        C235   1.519   1_554  S
C112        C272   1.512   1_455  S
C113        C114   1.384       .  D
C113        C332   1.499       .  S
C113        C575   1.494   1_545  S
C114        C262   1.538       .  S
C114        C555   1.545   1_554  S
C115        C116   1.397       .  D
C115        C355   1.527       .  S
C115        C522   1.530       .  S
C116        C252   1.514       .  S
C116        C495   1.541       .  S
C117        C118   1.382       .  D
C117        C152   1.555       .  S
C117        C242   1.503       .  S
C118        C175   1.488       .  S
C118        C292   1.513       .  S
C119        C120   1.369       .  D
C119        C142   1.507       .  S
C119        C342   1.512       .  S
C120        C122   1.520       .  S
C120        C282   1.510       .  S
C121        C122   1.404       .  A
C121        C126   1.402       .  A
C121        H128   1.075       .  S
C122        C123   1.413       .  A
C123        C124   1.409       .  A
C123       Br130   1.915       .  S
C124        C125   1.415       .  A
C124        H129   1.081       .  S
C125        C126   1.420       .  A
C126       Br127   1.921       .  S
C131        C132   1.415       .  A
C131        C496   1.428       .  A
C131        H498   1.082       .  S
C132        C133   1.396       .  A
C133        C134   1.383       .  A
C133       Br140   1.920       .  S
C134        C135   1.414       .  A
C134        H139   1.066       .  S
C135        C476   1.541       .  S
C135        C496   1.428       .  A
C136        C491   1.428   1_545  A
C136        C495   1.428       .  A
C136       Br137   1.916       .  S
H138        C491   1.082       .  S
C141        C142   1.419       .  A
C141        C146   1.423       .  A
C141        H148   1.081       .  S
C142        C143   1.401       .  A
C143        C144   1.372       .  A
C143       Br150   1.923       .  S
C144        C145   1.398       .  A
C144        H149   1.067       .  S
C145        C146   1.419       .  A
C146       Br147   1.914       .  S
C151        C152   1.425       .  A
C151        C156   1.383       .  A
C151        H158   1.078       .  S
C152        C153   1.444       .  A
C153        C154   1.409       .  A
C153       Br160   1.904       .  S
C154        C155   1.393       .  A
C154        H159   1.084       .  S
C155        C156   1.392       .  A
C156       Br157   1.932       .  S
C161        C162   1.417       .  A
C161        C166   1.397       .  A
C161        H528   1.076       .  S
C162        C475   1.530       .  S
C162        C163   1.425       .  A
C163        C164   1.415       .  A
C163       Br170   1.910       .  S
C164        C165   1.408       .  A
C164        H169   1.084       .  S
C165        C166   1.398       .  A
C166       Br167   1.926       .  S
H168        C521   1.076       .  S
C171        C172   1.441       .  A
C171        C176   1.397       .  A
C171        H178   1.056       .  S
C172        C173   1.444       .  A
C173        C174   1.404       .  A
C173       Br180   1.907   1_455  S
C174        C175   1.398       .  A
C174        H179   1.076   1_455  S
C175        C176   1.377       .  A
C176       Br177   1.919       .  S
C181        C182   1.408       .  A
C181        C186   1.421       .  A
C181        H188   1.083       .  S
C182        C183   1.379       .  A
C183        C184   1.384   1_556  A
C183       Br190   1.913       .  S
C184        C185   1.424   1_554  A
C184        H189   1.081       .  S
C185        C186   1.434       .  A
C186       Br187   1.917       .  S
C191        C192   1.407       .  A
C191        C196   1.408       .  A
C191        H198   1.083       .  S
C192        C193   1.417       .  A
C193        C554   1.407       .  A
C193       Br560   1.924       .  S
C194        C553   1.407       .  A
C194        C555   1.410       .  A
C194        H199   1.074   1_556  S
C195        C474   1.545   1_556  S
C195        C196   1.424       .  A
C195        C554   1.410       .  A
C196       Br197   1.900       .  S
Br200       C553   1.924       .  S
C201        C202   1.411       .  A
C201        C206   1.406       .  A
C201        H208   1.084       .  S
C202        C203   1.413       .  A
C203        C204   1.400       .  A
C203       Br210   1.918       .  S
C204        C205   1.410       .  A
C204        H209   1.083   1_455  S
C205        C206   1.415       .  A
C206       Br207   1.913       .  S
C211        C212   1.417       .  A
C211        C216   1.394   1_556  A
C211        H218   1.081   1_556  S
C212        C573   1.439       .  A
C213        C214   1.404       .  A
C213        C572   1.439   1_545  A
C213       Br220   1.914       .  S
C214        C575   1.391   1_546  A
C214        H219   1.083       .  S
C215        C473   1.494       .  S
C215        C216   1.408       .  A
C215        C574   1.391   1_554  A
C216       Br217   1.924       .  S
C221        C222   1.416       .  A
C221        C226   1.408       .  A
C221        H228   1.084       .  S
C222        C223   1.424       .  A
C223        C224   1.406       .  A
C223       Br230   1.916       .  S
C224        C225   1.409       .  A
C224        H229   1.084       .  S
C225        C226   1.406       .  A
C226       Br227   1.898       .  S
C231        C232   1.414       .  A
C231        C236   1.421       .  A
C231        H238   1.082       .  S
C232        C233   1.400       .  A
C233        C234   1.371   1_556  A
C233       Br240   1.912   1_556  S
C234        C235   1.401   1_554  A
C234        H239   1.072       .  S
C235        C236   1.425       .  A
C236       Br237   1.917       .  S
C241        C246   1.393       .  A
C241        C962   1.402       .  A
C241        H248   1.085       .  S
C242        C243   1.417       .  A
C242        C961   1.402   1_455  A
C243        C244   1.400   1_455  A
C243       Br250   1.905       .  S
C244        C965   1.404       .  A
C244        H249   1.080   1_655  S
C245        C246   1.412       .  A
C245        C964   1.404       .  A
C246       Br247   1.897       .  S
C251        C252   1.402       .  A
C251        C256   1.395       .  A
C251        H258   1.080       .  S
C252        C253   1.409       .  A
C253        C254   1.409       .  A
C253       Br620   1.920   1_545  S
C254        C255   1.417       .  A
C254        H259   1.054   1_545  S
C255        C256   1.416       .  A
C256       Br257   1.923       .  S
Br260       C613   1.920       .  S
C261        C262   1.410   1_565  A
C261        C266   1.399   1_565  A
C261        H268   1.085       .  S
C262        C263   1.432       .  A
C263        C264   1.407       .  A
C263       Br270   1.897       .  S
C264        C265   1.401       .  A
C264        H269   1.085       .  S
C265        C266   1.415       .  A
C266       Br267   1.898   1_545  S
C271        C272   1.410   1_455  A
C271        C276   1.421       .  A
C271        H278   1.084       .  S
C272        C993   1.401       .  A
C273        C274   1.391       .  A
C273        C992   1.401       .  A
C273       Br280   1.926   1_554  S
C274        C275   1.416       .  A
C274        H279   1.072       .  S
C275        C996   1.427       .  A
C276        C995   1.427   1_455  A
C276       Br277   1.913       .  S
C281        C282   1.414       .  A
C281        C286   1.404       .  A
C281        H288   1.079       .  S
C282        C283   1.405       .  A
C283        C284   1.387       .  A
C283       Br290   1.913       .  S
C284        C285   1.410       .  A
C284        H289   1.080       .  S
C285        C286   1.413       .  A
C286       Br287   1.920       .  S
C291        C296   1.390       .  A
C291       C1012   1.390       .  A
C291        H298   1.082       .  S
C292        C293   1.424       .  A
C292       C1011   1.390   1_455  A
C293        C294   1.414       .  A
C293       Br300   1.910       .  S
C294       C1015   1.408   1_455  A
C294        H299   1.069       .  S
C295        C296   1.422       .  A
C295       C1014   1.408       .  A
C296       Br297   1.899       .  S
C301        C302   1.415       .  A
C301        C306   1.410       .  A
C301        H308   1.082       .  S
C302        C303   1.406       .  A
C303        C304   1.384       .  A
C303       Br310   1.923   1_554  S
C304        C305   1.410       .  A
C304        H309   1.081       .  S
C305        C306   1.416       .  A
C306       Br307   1.920       .  S
C311        C312   1.412       .  A
C311        C316   1.398       .  A
C311        H318   1.083       .  S
C312       C1033   1.418   1_455  A
C313        C314   1.403       .  A
C313       C1032   1.418       .  A
C313       Br320   1.913       .  S
C314        C315   1.409       .  A
C314        H319   1.085       .  S
C315       C1036   1.408       .  A
C316       C1035   1.408   1_455  A
C316       Br317   1.907       .  S
C321        C322   1.401       .  A
C321        C326   1.403       .  A
C321        H328   1.082       .  S
C322        C323   1.407       .  A
C323        C324   1.400       .  A
C323       Br330   1.915       .  S
C324        C325   1.413       .  A
C324        H329   1.078       .  S
C325        C326   1.421       .  A
C326       Br327   1.914       .  S
C331        C332   1.402       .  A
C331        C336   1.403       .  A
C331        H338   1.077   1_545  S
C332        C333   1.418       .  A
C333        C334   1.404       .  A
C333       Br340   1.923       .  S
C334        C335   1.418       .  A
C334        H339   1.078       .  S
C335        C336   1.404       .  A
C336       Br337   1.903   1_545  S
C341        C342   1.401       .  A
C341        C346   1.377       .  A
C341        H348   1.084       .  S
C342        C343   1.428       .  A
C343        C344   1.413       .  A
C343       Br350   1.920       .  S
C344        C345   1.408       .  A
C344        H349   1.083       .  S
C345        C346   1.392       .  A
C346       Br347   1.886       .  S
C351        C352   1.415       .  A
C351        C356   1.410       .  A
C351        H358   1.078       .  S
C352        C353   1.409       .  A
C353        C354   1.390       .  A
C353       Br360   1.914       .  S
C354        C355   1.399       .  A
C354        H359   1.073       .  S
C355        C356   1.415       .  A
C356       Br717   1.905   1_545  S
Br357       C716   1.905       .  S
C361        C362   1.363       .  D
C361        C377   1.560       .  S
C361        C400   1.541       .  S
C362        C705   1.503       .  S
C362        C712   1.516       .  S
C363        C364   1.384       .  D
C363        C375   1.534       .  S
C363        C398   1.567       .  S
C364        C682   1.501       .  S
C364        C695   1.547       .  S
O365        C375   1.242       .  A
O366        C376   1.247       .  A
O366       Cu373   1.872       .  S
O367        C377   1.258       .  A
O368        C378   1.257       .  A
O368       Cu373   1.930       .  S
O369        C378   1.295       .  A
O369       Cu374   2.193       .  S
O370       Cu374   2.128   1_545  S
O371        C376   1.291       .  A
O371       Cu374   2.177       .  S
O372       Cu374   2.181   1_545  S
Cu373      Cu374   2.273       .  S
C376       C1101   1.567   1_455  S
C378       C1099   1.548   1_455  S
C379        C380   1.371       .  D
C379       C1098   1.548       .  S
C379        C411   1.534       .  S
C380        C665   1.509       .  S
C380        C675   1.507       .  S
C381        C382   1.389       .  D
C381       C1096   1.567       .  S
C381        C413   1.567       .  S
C382        C645   1.514       .  S
C382        C655   1.535       .  S
C383        C384   1.394       .  D
C383       C1119   1.559       .  S
C383        C414   1.525       .  S
C384        C625   1.531       .  S
C384        C635   1.556       .  S
C385        C386   1.382       .  D
C385       C1117   1.560       .  S
C385        C412   1.553       .  S
C386        C605   1.511       .  S
C386        C615   1.533       .  S
O387        C397   1.304       .  A
O387       Cu395   2.192       .  S
O388        C398   1.280       .  A
O388       Cu395   2.203       .  S
O389        C399   1.277       .  A
O389       Cu395   2.091       .  S
O390        C400   1.301       .  A
O390       Cu395   2.218       .  S
O391        C400   1.227       .  A
O391       Cu396   1.970       .  S
O392        C399   1.286       .  A
O392       Cu396   2.064       .  S
O393        C398   1.240       .  A
O393       Cu396   2.039       .  S
O394        C397   1.252       .  A
O394       Cu396   1.888       .  S
Cu395      Cu396   2.178       .  S
C397       C1105   1.560   1_455  S
C399       C1103   1.559   1_455  S
O401        C411   1.234       .  A
O401       Cu409   1.960       .  S
O402        C412   1.240       .  A
O403        C413   1.260       .  A
O403       Cu409   2.019       .  S
O404        C414   1.259       .  A
O405       Cu410   2.111       .  S
O406        C413   1.297       .  A
O406       Cu410   2.173       .  S
O407       Cu410   2.195       .  S
O408        C411   1.286       .  A
O408       Cu410   2.204       .  S
Cu409      Cu410   2.053       .  S
C415        C416   1.374       .  D
C415        C582   1.529       .  S
C415        C592   1.501       .  S
C416        C435   1.540       .  S
C416        C451   1.561       .  S
C417        C418   1.379       .  D
C417        C562   1.513       .  S
C417        C572   1.558       .  S
C418        C467   1.573       .  S
C419        C420   1.370       .  D
C419        C466   1.557       .  S
C420        C542   1.494       .  S
C420        C552   1.521       .  S
C421        C422   1.397       .  D
C421        C525   1.505       .  S
C421        C532   1.580       .  S
C422        C465   1.533       .  S
O423        C433   1.271       .  A
O423       Cu431   1.968       .  S
O424        C434   1.229       .  A
O424       Cu431   1.950       .  S
O425        C435   1.251       .  A
O425       Cu431   1.856       .  S
O426        C436   1.238       .  A
O426       Cu431   1.966       .  S
O427        C436   1.277       .  A
O427       Cu432   2.173       .  S
O428        C435   1.306       .  A
O428       Cu432   2.233       .  S
O429        C434   1.296       .  A
O429       Cu432   2.197       .  S
O430        C433   1.289       .  A
O430       Cu432   2.118       .  S
Cu431      Cu432   2.266       .  S
C433        C437   1.542       .  S
C437        C438   1.362       .  D
C437        C453   1.539       .  S
C438        C505   1.501       .  S
C438        C515   1.489       .  S
C439        C440   1.371       .  D
C439        C468   1.550       .  S
C440        C485   1.524       .  S
C440        C492   1.512       .  S
O441        C451   1.240       .  A
O441      Cu1169   1.948       .  S
O442        C452   1.236       .  A
O442       Cu449   1.951       .  S
O443        C453   1.259       .  A
O443      Cu1169   2.005       .  S
O444        C454   1.260       .  A
O444       Cu449   2.011       .  S
O445        C454   1.293       .  A
O445       Cu450   2.154       .  S
O446       C1173   1.295       .  A
O446       Cu450   2.139       .  S
O447        C452   1.292       .  A
O447       Cu450   2.220       .  S
O448       C1171   1.296       .  A
O448       Cu450   2.237       .  S
Cu449      O1161   1.948       .  S
Cu449      O1163   2.005       .  S
Cu449      Cu450   2.044       .  S
C451       O1168   1.296       .  A
C453       O1166   1.295       .  A
O455        C465   1.240       .  A
O455      Cu1183   1.967       .  S
O456        C466   1.266       .  A
O456       Cu463   1.949       .  S
O457        C467   1.244       .  A
O457      Cu1183   1.957       .  S
O458        C468   1.254       .  A
O458       Cu463   1.880       .  S
O459        C468   1.305       .  A
O459       Cu464   2.232       .  S
O460       C1187   1.277       .  A
O460       Cu464   2.167       .  S
O461        C466   1.294       .  A
O461       Cu464   2.142       .  S
O462       C1185   1.296       .  A
O462       Cu464   2.192       .  S
Cu463      O1175   1.967       .  S
Cu463      O1177   1.957       .  S
Cu463      Cu464   2.273       .  S
C465       O1182   1.296       .  A
C467       O1180   1.277       .  A
C469        C470   1.397       .  D
C469        C585   1.516   1_554  S
C469        C685   1.529       .  S
C470        C545   1.543   1_554  S
C470        C662   1.507       .  S
C471        C472   1.380       .  D
C471        C565   1.516   1_554  S
C471        C672   1.520       .  S
C472        C595   1.519   1_554  S
C472        C632   1.511   1_455  S
C473        C474   1.384       .  D
C473        C692   1.499       .  S
C474        C622   1.539       .  S
C475        C476   1.397       .  D
C475        C715   1.527       .  S
C476        C612   1.514       .  S
C477        C478   1.382       .  D
C477        C512   1.555       .  S
C477        C602   1.503       .  S
C478        C535   1.488       .  S
C478        C652   1.513       .  S
C479        C480   1.369       .  D
C479        C502   1.507       .  S
C479        C702   1.512       .  S
C480        C482   1.520       .  S
C480        C642   1.510       .  S
C481        C482   1.404       .  A
C481        C486   1.402       .  A
C481        H488   1.075       .  S
C482        C483   1.413       .  A
C483        C484   1.409       .  A
C483       Br490   1.915       .  S
C484        C485   1.415       .  A
C484        H489   1.081       .  S
C485        C486   1.420       .  A
C486       Br487   1.921       .  S
C491        C492   1.415       .  A
C492        C493   1.396       .  A
C493        C494   1.383       .  A
C493       Br500   1.920       .  S
C494        C495   1.414   1_565  A
C494        H499   1.066       .  S
C496       Br497   1.916       .  S
C501        C502   1.419       .  A
C501        C506   1.423       .  A
C501        H508   1.081       .  S
C502        C503   1.401       .  A
C503        C504   1.372       .  A
C503       Br510   1.923       .  S
C504        C505   1.398       .  A
C504        H509   1.067       .  S
C505        C506   1.419       .  A
C506       Br507   1.914       .  S
C511        C512   1.425       .  A
C511        C516   1.383       .  A
C511        H518   1.078       .  S
C512        C513   1.444       .  A
C513        C514   1.409       .  A
C513       Br520   1.904       .  S
C514        C515   1.393       .  A
C514        H519   1.084       .  S
C515        C516   1.392       .  A
C516       Br517   1.932       .  S
C521        C522   1.417       .  A
C521        C526   1.397   1_545  A
C522        C523   1.425   1_545  A
C523        C524   1.415       .  A
C523       Br530   1.910       .  S
C524        C525   1.408       .  A
C524        H529   1.084       .  S
C525        C526   1.398       .  A
C526       Br527   1.926   1_565  S
C531        C532   1.441       .  A
C531        C536   1.397       .  A
C531        H538   1.056       .  S
C532        C533   1.444       .  A
C533        C534   1.404       .  A
C533       Br540   1.907   1_455  S
C534        C535   1.398       .  A
C534        H539   1.076   1_455  S
C535        C536   1.377       .  A
C536       Br537   1.919       .  S
C541        C542   1.408       .  A
C541        C546   1.421       .  A
C541        H548   1.083       .  S
C542        C543   1.379       .  A
C543        C544   1.384   1_556  A
C543       Br550   1.913       .  S
C544        C545   1.424   1_554  A
C544        H549   1.081       .  S
C545        C546   1.434       .  A
C546       Br547   1.917       .  S
C551        C552   1.407       .  A
C551        C556   1.408       .  A
C551        H558   1.083       .  S
C552        C553   1.417   1_565  A
C554        H559   1.074   1_556  S
C555        C556   1.424   1_545  A
C556       Br557   1.900       .  S
C561        C562   1.411       .  A
C561        C566   1.406       .  A
C561        H568   1.084       .  S
C562        C563   1.413       .  A
C563        C564   1.400       .  A
C563       Br570   1.918       .  S
C564        C565   1.411       .  A
C564        H569   1.083   1_455  S
C565        C566   1.415       .  A
C566       Br567   1.914       .  S
C571        C572   1.417       .  A
C571        C576   1.394   1_556  A
C571        H578   1.081   1_556  S
C573        C574   1.404       .  A
C573       Br580   1.914       .  S
C574        H579   1.083       .  S
C575        C576   1.408       .  A
C576       Br577   1.924       .  S
C581        C582   1.416       .  A
C581        C586   1.408       .  A
C581        H588   1.084       .  S
C582        C583   1.424       .  A
C583        C584   1.406       .  A
C583       Br590   1.916       .  S
C584        C585   1.409       .  A
C584        H589   1.084       .  S
C585        C586   1.406       .  A
C586       Br587   1.898       .  S
C591        C592   1.414       .  A
C591        C596   1.421       .  A
C591        H598   1.082       .  S
C592        C593   1.400       .  A
C593        C594   1.371   1_556  A
C593       Br600   1.912   1_556  S
C594        C595   1.401   1_554  A
C594        H599   1.072       .  S
C595        C596   1.425       .  A
C596       Br597   1.917       .  S
C601       C1322   1.402       .  A
C601        C606   1.393       .  A
C601        H608   1.085       .  S
C602       C1321   1.402   1_455  A
C602        C603   1.417       .  A
C603        C604   1.400   1_455  A
C603       Br610   1.905       .  S
C604       C1325   1.404       .  A
C604        H609   1.080   1_655  S
C605       C1324   1.404       .  A
C605        C606   1.412       .  A
C606       Br607   1.897       .  S
C611        C612   1.402       .  A
C611        C616   1.395       .  A
C611        H618   1.080       .  S
C612        C613   1.409       .  A
C613        C614   1.409       .  A
C614        C615   1.417       .  A
C614        H619   1.054       .  S
C615        C616   1.416       .  A
C616       Br617   1.923       .  S
C621        C622   1.410       .  A
C621        C626   1.399       .  A
C621        H628   1.085       .  S
C622        C623   1.432       .  A
C623        C624   1.407       .  A
C623       Br630   1.898       .  S
C624        C625   1.401       .  A
C624        H629   1.085       .  S
C625        C626   1.415       .  A
C626       Br627   1.897       .  S
C631        C632   1.410   1_455  A
C631        C636   1.421       .  A
C631        H638   1.084       .  S
C632       C1353   1.400       .  A
C633       C1352   1.400       .  A
C633        C634   1.391       .  A
C633       Br640   1.926   1_554  S
C634        C635   1.416       .  A
C634        H639   1.072       .  S
C635       C1356   1.427       .  A
C636       C1355   1.427   1_455  A
C636       Br637   1.913       .  S
C641        C642   1.414       .  A
C641        C646   1.404       .  A
C641        H648   1.079       .  S
C642        C643   1.405       .  A
C643        C644   1.387       .  A
C643       Br650   1.913       .  S
C644        C645   1.410       .  A
C644        H649   1.080       .  S
C645        C646   1.413       .  A
C646       Br647   1.920       .  S
C651       C1372   1.390       .  A
C651        C656   1.390       .  A
C651        H658   1.082       .  S
C652       C1371   1.390   1_455  A
C652        C653   1.424       .  A
C653        C654   1.414       .  A
C653       Br660   1.910       .  S
C654       C1375   1.408   1_455  A
C654        H659   1.069       .  S
C655       C1374   1.408       .  A
C655        C656   1.422       .  A
C656       Br657   1.899       .  S
C661        C662   1.415       .  A
C661        C666   1.410       .  A
C661        H668   1.082       .  S
C662        C663   1.406       .  A
C663        C664   1.384       .  A
C663       Br670   1.923   1_554  S
C664        C665   1.410       .  A
C664        H669   1.081       .  S
C665        C666   1.416       .  A
C666       Br667   1.920       .  S
C671        C672   1.412       .  A
C671        C676   1.398       .  A
C671        H678   1.083       .  S
C672       C1393   1.418   1_455  A
C673       C1392   1.418       .  A
C673        C674   1.403       .  A
C673       Br680   1.913       .  S
C674        C675   1.409       .  A
C674        H679   1.085       .  S
C675       C1396   1.408       .  A
C676       C1395   1.408   1_455  A
C676       Br677   1.907       .  S
C681        C682   1.401       .  A
C681        C686   1.403       .  A
C681        H688   1.082       .  S
C682        C683   1.407       .  A
C683        C684   1.400       .  A
C683       Br690   1.915       .  S
C684        C685   1.413       .  A
C684        H689   1.078       .  S
C685        C686   1.422       .  A
C686       Br687   1.914       .  S
C691        C692   1.402       .  A
C691        C696   1.403       .  A
C691        H698   1.077       .  S
C692        C693   1.418       .  A
C693        C694   1.404       .  A
C693       Br700   1.923       .  S
C694        C695   1.418       .  A
C694        H699   1.077       .  S
C695        C696   1.403       .  A
C696       Br697   1.902       .  S
C701        C702   1.401       .  A
C701        C706   1.377       .  A
C701        H708   1.084       .  S
C702        C703   1.428       .  A
C703        C704   1.413       .  A
C703       Br710   1.920       .  S
C704        C705   1.408       .  A
C704        H709   1.083       .  S
C705        C706   1.392       .  A
C706       Br707   1.886       .  S
C711        C712   1.415       .  A
C711        C716   1.410       .  A
C711        H718   1.078       .  S
C712        C713   1.409       .  A
C713        C714   1.390       .  A
C713       Br720   1.914       .  S
C714        C715   1.399       .  A
C714        H719   1.073       .  S
C715        C716   1.415       .  A
C721        C722   1.363       .  D
C721        C737   1.560       .  S
C721        C760   1.541       .  S
C722       C1065   1.503       .  S
C722       C1072   1.516       .  S
C723        C724   1.384       .  D
C723        C735   1.533       .  S
C723        C758   1.567       .  S
C724       C1042   1.501       .  S
C724       C1055   1.547       .  S
O725        C735   1.242       .  A
O725      Cu1093   1.894   1_545  S
O726        C736   1.247       .  A
O726       Cu733   1.872       .  S
O727        C737   1.258       .  A
O727      Cu1093   1.975   1_545  S
O728        C738   1.257       .  A
O728       Cu733   1.930       .  S
O729        C738   1.295       .  A
O729       Cu734   2.193       .  S
O730       C1097   1.279       .  A
O730       Cu734   2.128       .  S
O731        C736   1.291       .  A
O731       Cu734   2.177       .  S
O732       C1095   1.301       .  A
O732       Cu734   2.182       .  S
Cu733      O1085   1.894       .  S
Cu733      O1087   1.975       .  S
Cu733      Cu734   2.273       .  S
C735       O1092   1.301       .  A
C737       O1090   1.279       .  A
C739        C740   1.371       .  D
C739        C771   1.534       .  S
C740       C1025   1.509       .  S
C740       C1035   1.507       .  S
C741        C742   1.389       .  D
C741        C773   1.567       .  S
C742       C1005   1.514       .  S
C742       C1015   1.535       .  S
C743        C744   1.394       .  D
C743        C774   1.525       .  S
C744        C985   1.531       .  S
C744        C995   1.557       .  S
C745        C746   1.382       .  D
C745        C772   1.553       .  S
C746        C965   1.511       .  S
C746        C975   1.533       .  S
O747        C757   1.304       .  A
O747       Cu755   2.192       .  S
O748        C758   1.280       .  A
O748       Cu755   2.203       .  S
O749        C759   1.277       .  A
O749       Cu755   2.091       .  S
O750        C760   1.301       .  A
O750       Cu755   2.218       .  S
O751        C760   1.227       .  A
O751       Cu756   1.970       .  S
O752        C759   1.286       .  A
O752       Cu756   2.065       .  S
O753        C758   1.240       .  A
O753       Cu756   2.039       .  S
O754        C757   1.252       .  A
O754       Cu756   1.888       .  S
Cu755      Cu756   2.178       .  S
O761        C771   1.234       .  A
O761       Cu769   1.961       .  S
O762        C772   1.240       .  A
O762      Cu1129   1.937   1_545  S
O763        C773   1.260       .  A
O763       Cu769   2.019       .  S
O764        C774   1.259   1_565  A
O764      Cu1129   1.978       .  S
O765       C1134   1.293       .  A
O765       Cu770   2.111       .  S
O766        C773   1.297       .  A
O766       Cu770   2.173       .  S
O767       C1132   1.292       .  A
O767       Cu770   2.195       .  S
O768        C771   1.286       .  A
O768       Cu770   2.204       .  S
Cu769      O1122   1.937       .  S
Cu769      O1124   1.978       .  S
Cu769      Cu770   2.053       .  S
C772       O1127   1.292   1_545  A
C774       O1125   1.293   1_545  A
C775        C776   1.374       .  D
C775        C942   1.529       .  S
C775        C952   1.501       .  S
C776        C795   1.540       .  S
C776        C811   1.561       .  S
C777        C778   1.379       .  D
C777        C922   1.513       .  S
C777        C932   1.558       .  S
C778       C1154   1.517       .  S
C778        C827   1.573       .  S
C779        C780   1.370       .  D
C779       C1174   1.540       .  S
C779        C826   1.557       .  S
C780        C902   1.494       .  S
C780        C912   1.521       .  S
C781        C782   1.398       .  D
C781        C885   1.505       .  S
C781        C892   1.580       .  S
C782       C1156   1.577       .  S
C782        C825   1.533       .  S
O783        C793   1.271       .  A
O783       Cu791   1.968       .  S
O784        C794   1.229       .  A
O784       Cu791   1.950       .  S
O785        C795   1.251       .  A
O785       Cu791   1.856       .  S
O786        C796   1.238       .  A
O786       Cu791   1.966   1_565  S
O787        C796   1.277   1_545  A
O787       Cu792   2.173       .  S
O788        C795   1.306       .  A
O788       Cu792   2.233       .  S
O789        C794   1.296       .  A
O789       Cu792   2.197       .  S
O790        C793   1.289       .  A
O790       Cu792   2.118       .  S
Cu791      Cu792   2.266       .  S
C793        C797   1.542       .  S
C794       C1138   1.517   1_545  S
C796       C1142   1.577       .  S
C797        C798   1.362       .  D
C797        C813   1.539       .  S
C798        C865   1.501       .  S
C798        C875   1.489       .  S
C799        C800   1.371       .  D
C799       C1172   1.543       .  S
C799        C828   1.550       .  S
C800        C845   1.524       .  S
C800        C852   1.512       .  S
O801        C811   1.240       .  A
O802        C812   1.236       .  A
O802       Cu809   1.951   1_655  S
O803        C813   1.259       .  A
O804        C814   1.260       .  A
O804       Cu809   2.011   1_655  S
O805        C814   1.293       .  A
O805       Cu810   2.154       .  S
O806       Cu810   2.139   1_455  S
O807        C812   1.292       .  A
O807       Cu810   2.220       .  S
O808       Cu810   2.236   1_455  S
Cu809      Cu810   2.044   1_455  S
C812       C1159   1.543   1_545  S
C814       C1139   1.540   1_545  S
O815        C825   1.240       .  A
O816        C826   1.266       .  A
O816       Cu823   1.949   1_655  S
O817        C827   1.244       .  A
O818        C828   1.254       .  A
O818       Cu823   1.880   1_655  S
O819        C828   1.305       .  A
O819       Cu824   2.231       .  S
O820       Cu824   2.166   1_455  S
O821        C826   1.294       .  A
O821       Cu824   2.143       .  S
O822       Cu824   2.192   1_455  S
Cu823      Cu824   2.273   1_455  S
C829        C830   1.397       .  D
C829        C945   1.516   1_554  S
C829       C1045   1.529       .  S
C830        C905   1.543   1_554  S
C830       C1022   1.507       .  S
C831        C832   1.380       .  D
C831        C925   1.516   1_554  S
C831       C1032   1.520       .  S
C832        C955   1.519   1_554  S
C832        C992   1.512       .  S
C833        C834   1.384       .  D
C833       C1295   1.494   1_545  S
C833       C1052   1.499       .  S
C834       C1275   1.545   1_554  S
C834        C982   1.538       .  S
C835        C836   1.397       .  D
C835       C1242   1.530       .  S
C835       C1075   1.527       .  S
C836       C1215   1.541       .  S
C836        C972   1.514       .  S
C837        C838   1.382       .  D
C837        C872   1.555       .  S
C837        C962   1.503       .  S
C838        C895   1.488       .  S
C838       C1012   1.513       .  S
C839        C840   1.369       .  D
C839        C862   1.507       .  S
C839       C1062   1.512       .  S
C840        C842   1.520       .  S
C840       C1002   1.510       .  S
C841        C842   1.404       .  A
C841        C846   1.402       .  A
C841        H848   1.075       .  S
C842        C843   1.413       .  A
C843        C844   1.409       .  A
C843       Br850   1.915       .  S
C844        C845   1.415       .  A
C844        H849   1.081       .  S
C845        C846   1.420       .  A
C846       Br847   1.921       .  S
C851        C852   1.415       .  A
C851       C1216   1.428       .  A
C851       H1218   1.082       .  S
C852        C853   1.396       .  A
C853        C854   1.383       .  A
C853       Br860   1.920       .  S
C854        C855   1.414       .  A
C854        H859   1.066       .  S
C855       C1196   1.541       .  S
C855       C1216   1.428       .  A
C856       C1211   1.428   1_545  A
C856       C1215   1.428       .  A
C856       Br857   1.916       .  S
H858       C1211   1.082       .  S
C861        C862   1.419       .  A
C861        C866   1.423       .  A
C861        H868   1.081       .  S
C862        C863   1.401       .  A
C863        C864   1.372       .  A
C863       Br870   1.923       .  S
C864        C865   1.398       .  A
C864        H869   1.067       .  S
C865        C866   1.419       .  A
C866       Br867   1.914       .  S
C871        C872   1.425       .  A
C871        C876   1.383       .  A
C871        H878   1.078       .  S
C872        C873   1.444       .  A
C873        C874   1.409       .  A
C873       Br880   1.904       .  S
C874        C875   1.393       .  A
C874        H879   1.084       .  S
C875        C876   1.392       .  A
C876       Br877   1.932       .  S
C881        C882   1.417       .  A
C881        C886   1.397       .  A
C881       H1248   1.076       .  S
C882       C1195   1.530       .  S
C882        C883   1.425       .  A
C883        C884   1.415       .  A
C883       Br890   1.910       .  S
C884        C885   1.408       .  A
C884        H889   1.084       .  S
C885        C886   1.398       .  A
C886       Br887   1.926       .  S
H888       C1241   1.076       .  S
C891        C892   1.441       .  A
C891        C896   1.397       .  A
C891        H898   1.056       .  S
C892        C893   1.444       .  A
C893        C894   1.404       .  A
C893       Br900   1.907       .  S
C894        C895   1.398       .  A
C894        H899   1.076       .  S
C895        C896   1.377       .  A
C896       Br897   1.919       .  S
C901        C902   1.408       .  A
C901        C906   1.421       .  A
C901        H908   1.083       .  S
C902        C903   1.379       .  A
C903        C904   1.384   1_556  A
C903       Br910   1.913       .  S
C904        C905   1.424   1_554  A
C904        H909   1.081       .  S
C905        C906   1.434       .  A
C906       Br907   1.917       .  S
C911        C912   1.407       .  A
C911        C916   1.408       .  A
C911        H918   1.083       .  S
C912        C913   1.417       .  A
C913       C1274   1.407       .  A
C913      Br1280   1.924       .  S
C914       C1273   1.407       .  A
C914       C1275   1.410       .  A
C914        H919   1.074   1_556  S
C915       C1194   1.545   1_556  S
C915       C1274   1.410       .  A
C915        C916   1.424       .  A
C916       Br917   1.900       .  S
Br920      C1273   1.924       .  S
C921        C922   1.411       .  A
C921        C926   1.406       .  A
C921        H928   1.084       .  S
C922        C923   1.413       .  A
C923        C924   1.400       .  A
C923       Br930   1.918       .  S
C924        C925   1.410       .  A
C924        H929   1.083       .  S
C925        C926   1.415       .  A
C926       Br927   1.913       .  S
C931        C932   1.417       .  A
C931        C936   1.394   1_556  A
C931        H938   1.081   1_556  S
C932       C1293   1.439       .  A
C933       C1292   1.439   1_545  A
C933        C934   1.404       .  A
C933       Br940   1.914       .  S
C934       C1295   1.391   1_546  A
C934        H939   1.083       .  S
C935       C1193   1.494       .  S
C935       C1294   1.391   1_554  A
C935        C936   1.408       .  A
C936       Br937   1.924       .  S
C941        C942   1.416       .  A
C941        C946   1.408       .  A
C941        H948   1.084       .  S
C942        C943   1.424       .  A
C943        C944   1.406       .  A
C943       Br950   1.916       .  S
C944        C945   1.409       .  A
C944        H949   1.084       .  S
C945        C946   1.406       .  A
C946       Br947   1.898       .  S
C951        C952   1.414       .  A
C951        C956   1.421       .  A
C951        H958   1.082       .  S
C952        C953   1.400       .  A
C953        C954   1.371   1_556  A
C953       Br960   1.912   1_556  S
C954        C955   1.401   1_554  A
C954        H959   1.072       .  S
C955        C956   1.425       .  A
C956       Br957   1.917       .  S
C961        C966   1.393       .  A
C961        H968   1.085       .  S
C962        C963   1.417       .  A
C963        C964   1.400       .  A
C963       Br970   1.905       .  S
C964        H969   1.080       .  S
C965        C966   1.412       .  A
C966       Br967   1.897       .  S
C971        C972   1.402       .  A
C971        C976   1.395       .  A
C971        H978   1.080       .  S
C972        C973   1.409       .  A
C973        C974   1.409       .  A
C973      Br1340   1.920   1_545  S
C974        C975   1.417       .  A
C974        H979   1.054   1_545  S
C975        C976   1.416       .  A
C976       Br977   1.923       .  S
Br980      C1333   1.920       .  S
C981        C982   1.410   1_565  A
C981        C986   1.399   1_565  A
C981        H988   1.085       .  S
C982        C983   1.432       .  A
C983        C984   1.407       .  A
C983       Br990   1.897       .  S
C984        C985   1.401       .  A
C984        H989   1.085       .  S
C985        C986   1.415       .  A
C986       Br987   1.898   1_545  S
C991        C992   1.410       .  A
C991        C996   1.421       .  A
C991        H998   1.084       .  S
C993        C994   1.391       .  A
C993      Br1000   1.926   1_554  S
C994        C995   1.416       .  A
C994        H999   1.072       .  S
C996       Br997   1.913       .  S
C1001      C1002   1.414       .  A
C1001      C1006   1.404       .  A
C1001      H1008   1.079       .  S
C1002      C1003   1.405       .  A
C1003      C1004   1.387       .  A
C1003     Br1010   1.913       .  S
C1004      C1005   1.410       .  A
C1004      H1009   1.080       .  S
C1005      C1006   1.413       .  A
C1006     Br1007   1.920       .  S
C1011      C1016   1.390       .  A
C1011      H1018   1.082       .  S
C1012      C1013   1.424       .  A
C1013      C1014   1.414       .  A
C1013     Br1020   1.910       .  S
C1014      H1019   1.069       .  S
C1015      C1016   1.422       .  A
C1016     Br1017   1.899       .  S
C1021      C1022   1.415       .  A
C1021      C1026   1.410       .  A
C1021      H1028   1.082       .  S
C1022      C1023   1.406       .  A
C1023      C1024   1.384       .  A
C1023     Br1030   1.923   1_554  S
C1024      C1025   1.410       .  A
C1024      H1029   1.081       .  S
C1025      C1026   1.416       .  A
C1026     Br1027   1.920       .  S
C1031      C1032   1.412       .  A
C1031      C1036   1.398       .  A
C1031      H1038   1.083       .  S
C1033      C1034   1.403       .  A
C1033     Br1040   1.913       .  S
C1034      C1035   1.409       .  A
C1034      H1039   1.085       .  S
C1036     Br1037   1.907       .  S
C1041      C1042   1.401       .  A
C1041      C1046   1.403       .  A
C1041      H1048   1.082       .  S
C1042      C1043   1.407       .  A
C1043      C1044   1.400       .  A
C1043     Br1050   1.915       .  S
C1044      C1045   1.413       .  A
C1044      H1049   1.078       .  S
C1045      C1046   1.421       .  A
C1046     Br1047   1.914       .  S
C1051      C1052   1.402       .  A
C1051      C1056   1.403       .  A
C1051      H1058   1.077   1_545  S
C1052      C1053   1.418       .  A
C1053      C1054   1.404       .  A
C1053     Br1060   1.923       .  S
C1054      C1055   1.418       .  A
C1054      H1059   1.078       .  S
C1055      C1056   1.404       .  A
C1056     Br1057   1.903   1_545  S
C1061      C1062   1.401       .  A
C1061      C1066   1.377       .  A
C1061      H1068   1.084       .  S
C1062      C1063   1.428       .  A
C1063      C1064   1.413       .  A
C1063     Br1070   1.920       .  S
C1064      C1065   1.408       .  A
C1064      H1069   1.083       .  S
C1065      C1066   1.392       .  A
C1066     Br1067   1.886       .  S
C1071      C1072   1.415       .  A
C1071      C1076   1.410       .  A
C1071      H1078   1.078       .  S
C1072      C1073   1.409       .  A
C1073      C1074   1.390       .  A
C1073     Br1080   1.914       .  S
C1074      C1075   1.399       .  A
C1074      H1079   1.073       .  S
C1075      C1076   1.415       .  A
C1076     Br1437   1.905   1_545  S
Br1077     C1436   1.905       .  S
C1081      C1082   1.363       .  D
C1081      C1097   1.560       .  S
C1081      C1120   1.541       .  S
C1082      C1425   1.503       .  S
C1082      C1432   1.516       .  S
C1083      C1084   1.384       .  D
C1083      C1095   1.534       .  S
C1083      C1118   1.567       .  S
C1084      C1402   1.501       .  S
C1084      C1415   1.547       .  S
O1085      C1095   1.242       .  A
O1086      C1096   1.247       .  A
O1086     Cu1093   1.872       .  S
O1087      C1097   1.258       .  A
O1088      C1098   1.257       .  A
O1088     Cu1093   1.930       .  S
O1089      C1098   1.295       .  A
O1089     Cu1094   2.193       .  S
O1090     Cu1094   2.128   1_545  S
O1091      C1096   1.291       .  A
O1091     Cu1094   2.177       .  S
O1092     Cu1094   2.181   1_545  S
Cu1093    Cu1094   2.273       .  S
C1099      C1100   1.371       .  D
C1099      C1131   1.534       .  S
C1100      C1385   1.509       .  S
C1100      C1395   1.507       .  S
C1101      C1102   1.389       .  D
C1101      C1133   1.567       .  S
C1102      C1365   1.514       .  S
C1102      C1375   1.535       .  S
C1103      C1104   1.394       .  D
C1103      C1134   1.525       .  S
C1104      C1345   1.531       .  S
C1104      C1355   1.556       .  S
C1105      C1106   1.382       .  D
C1105      C1132   1.553       .  S
C1106      C1325   1.511       .  S
C1106      C1335   1.533       .  S
O1107      C1117   1.304       .  A
O1107     Cu1115   2.192       .  S
O1108      C1118   1.280       .  A
O1108     Cu1115   2.203       .  S
O1109      C1119   1.277       .  A
O1109     Cu1115   2.091       .  S
O1110      C1120   1.301       .  A
O1110     Cu1115   2.218       .  S
O1111      C1120   1.227       .  A
O1111     Cu1116   1.970       .  S
O1112      C1119   1.286       .  A
O1112     Cu1116   2.064       .  S
O1113      C1118   1.240       .  A
O1113     Cu1116   2.039       .  S
O1114      C1117   1.252       .  A
O1114     Cu1116   1.888       .  S
Cu1115    Cu1116   2.178       .  S
O1121      C1131   1.234       .  A
O1121     Cu1129   1.960       .  S
O1122      C1132   1.240       .  A
O1123      C1133   1.260       .  A
O1123     Cu1129   2.019       .  S
O1124      C1134   1.259       .  A
O1125     Cu1130   2.111       .  S
O1126      C1133   1.297       .  A
O1126     Cu1130   2.173       .  S
O1127     Cu1130   2.195       .  S
O1128      C1131   1.286       .  A
O1128     Cu1130   2.204       .  S
Cu1129    Cu1130   2.053       .  S
C1135      C1136   1.374       .  D
C1135      C1302   1.529       .  S
C1135      C1312   1.501       .  S
C1136      C1155   1.540       .  S
C1136      C1171   1.561       .  S
C1137      C1138   1.379       .  D
C1137      C1282   1.513       .  S
C1137      C1292   1.558       .  S
C1138      C1187   1.573       .  S
C1139      C1140   1.370       .  D
C1139      C1186   1.557       .  S
C1140      C1262   1.494       .  S
C1140      C1272   1.521       .  S
C1141      C1142   1.397       .  D
C1141      C1245   1.505       .  S
C1141      C1252   1.580       .  S
C1142      C1185   1.533       .  S
O1143      C1153   1.271       .  A
O1143     Cu1151   1.968       .  S
O1144      C1154   1.229       .  A
O1144     Cu1151   1.950       .  S
O1145      C1155   1.251       .  A
O1145     Cu1151   1.856       .  S
O1146      C1156   1.238       .  A
O1146     Cu1151   1.966       .  S
O1147      C1156   1.277       .  A
O1147     Cu1152   2.173       .  S
O1148      C1155   1.306       .  A
O1148     Cu1152   2.233       .  S
O1149      C1154   1.296       .  A
O1149     Cu1152   2.197       .  S
O1150      C1153   1.289       .  A
O1150     Cu1152   2.118       .  S
Cu1151    Cu1152   2.266       .  S
C1153      C1157   1.542       .  S
C1157      C1158   1.362       .  D
C1157      C1173   1.539       .  S
C1158      C1225   1.501       .  S
C1158      C1235   1.489       .  S
C1159      C1160   1.371       .  D
C1159      C1188   1.550       .  S
C1160      C1205   1.524       .  S
C1160      C1212   1.512       .  S
O1161      C1171   1.240       .  A
O1162      C1172   1.236       .  A
O1162     Cu1169   1.951   1_655  S
O1163      C1173   1.259       .  A
O1164      C1174   1.260       .  A
O1164     Cu1169   2.011   1_655  S
O1165      C1174   1.293       .  A
O1165     Cu1170   2.154       .  S
O1166     Cu1170   2.139   1_455  S
O1167      C1172   1.292       .  A
O1167     Cu1170   2.220       .  S
O1168     Cu1170   2.237   1_455  S
Cu1169    Cu1170   2.044   1_455  S
O1175      C1185   1.240       .  A
O1176      C1186   1.266       .  A
O1176     Cu1183   1.949   1_655  S
O1177      C1187   1.244       .  A
O1178      C1188   1.254       .  A
O1178     Cu1183   1.880   1_655  S
O1179      C1188   1.305       .  A
O1179     Cu1184   2.232       .  S
O1180     Cu1184   2.167   1_455  S
O1181      C1186   1.294       .  A
O1181     Cu1184   2.142       .  S
O1182     Cu1184   2.192   1_455  S
Cu1183    Cu1184   2.273   1_455  S
C1189      C1190   1.397       .  D
C1189      C1305   1.516   1_554  S
C1189      C1405   1.529       .  S
C1190      C1265   1.543   1_554  S
C1190      C1382   1.507       .  S
C1191      C1192   1.380       .  D
C1191      C1285   1.516   1_554  S
C1191      C1392   1.520       .  S
C1192      C1315   1.519   1_554  S
C1192      C1352   1.511       .  S
C1193      C1194   1.384       .  D
C1193      C1412   1.499       .  S
C1194      C1342   1.539       .  S
C1195      C1196   1.397       .  D
C1195      C1435   1.527       .  S
C1196      C1332   1.514       .  S
C1197      C1198   1.382       .  D
C1197      C1232   1.555       .  S
C1197      C1322   1.503       .  S
C1198      C1255   1.488       .  S
C1198      C1372   1.513       .  S
C1199      C1200   1.369       .  D
C1199      C1222   1.507       .  S
C1199      C1422   1.512       .  S
C1200      C1202   1.520       .  S
C1200      C1362   1.510       .  S
C1201      C1202   1.404       .  A
C1201      C1206   1.402       .  A
C1201      H1208   1.075       .  S
C1202      C1203   1.413       .  A
C1203      C1204   1.409       .  A
C1203     Br1210   1.915       .  S
C1204      C1205   1.415       .  A
C1204      H1209   1.081       .  S
C1205      C1206   1.420       .  A
C1206     Br1207   1.921       .  S
C1211      C1212   1.415       .  A
C1212      C1213   1.396       .  A
C1213      C1214   1.383       .  A
C1213     Br1220   1.920       .  S
C1214      C1215   1.414   1_565  A
C1214      H1219   1.066       .  S
C1216     Br1217   1.916       .  S
C1221      C1222   1.419       .  A
C1221      C1226   1.423       .  A
C1221      H1228   1.081       .  S
C1222      C1223   1.401       .  A
C1223      C1224   1.372       .  A
C1223     Br1230   1.923       .  S
C1224      C1225   1.398       .  A
C1224      H1229   1.067       .  S
C1225      C1226   1.419       .  A
C1226     Br1227   1.914       .  S
C1231      C1232   1.425       .  A
C1231      C1236   1.383       .  A
C1231      H1238   1.078       .  S
C1232      C1233   1.444       .  A
C1233      C1234   1.409       .  A
C1233     Br1240   1.904       .  S
C1234      C1235   1.393       .  A
C1234      H1239   1.084       .  S
C1235      C1236   1.392       .  A
C1236     Br1237   1.932       .  S
C1241      C1242   1.417       .  A
C1241      C1246   1.397   1_545  A
C1242      C1243   1.425   1_545  A
C1243      C1244   1.415       .  A
C1243     Br1250   1.910       .  S
C1244      C1245   1.408       .  A
C1244      H1249   1.084       .  S
C1245      C1246   1.398       .  A
C1246     Br1247   1.926   1_565  S
C1251      C1252   1.441       .  A
C1251      C1256   1.397       .  A
C1251      H1258   1.056       .  S
C1252      C1253   1.444       .  A
C1253      C1254   1.404       .  A
C1253     Br1260   1.907       .  S
C1254      C1255   1.398       .  A
C1254      H1259   1.076       .  S
C1255      C1256   1.377       .  A
C1256     Br1257   1.919       .  S
C1261      C1262   1.408       .  A
C1261      C1266   1.421       .  A
C1261      H1268   1.083       .  S
C1262      C1263   1.379       .  A
C1263      C1264   1.384   1_556  A
C1263     Br1270   1.913       .  S
C1264      C1265   1.424   1_554  A
C1264      H1269   1.081       .  S
C1265      C1266   1.434       .  A
C1266     Br1267   1.917       .  S
C1271      C1272   1.407       .  A
C1271      C1276   1.408       .  A
C1271      H1278   1.083       .  S
C1272      C1273   1.417   1_565  A
C1274      H1279   1.074   1_556  S
C1275      C1276   1.424   1_545  A
C1276     Br1277   1.900       .  S
C1281      C1282   1.411       .  A
C1281      C1286   1.406       .  A
C1281      H1288   1.084       .  S
C1282      C1283   1.413       .  A
C1283      C1284   1.400       .  A
C1283     Br1290   1.918       .  S
C1284      C1285   1.411       .  A
C1284      H1289   1.083       .  S
C1285      C1286   1.415       .  A
C1286     Br1287   1.914       .  S
C1291      C1292   1.417       .  A
C1291      C1296   1.394   1_556  A
C1291      H1298   1.081   1_556  S
C1293      C1294   1.404       .  A
C1293     Br1300   1.914       .  S
C1294      H1299   1.083       .  S
C1295      C1296   1.408       .  A
C1296     Br1297   1.924       .  S
C1301      C1302   1.416       .  A
C1301      C1306   1.408       .  A
C1301      H1308   1.084       .  S
C1302      C1303   1.424       .  A
C1303      C1304   1.406       .  A
C1303     Br1310   1.916       .  S
C1304      C1305   1.409       .  A
C1304      H1309   1.084       .  S
C1305      C1306   1.406       .  A
C1306     Br1307   1.898       .  S
C1311      C1312   1.414       .  A
C1311      C1316   1.421       .  A
C1311      H1318   1.082       .  S
C1312      C1313   1.400       .  A
C1313      C1314   1.371   1_556  A
C1313     Br1320   1.912   1_556  S
C1314      C1315   1.401   1_554  A
C1314      H1319   1.072       .  S
C1315      C1316   1.425       .  A
C1316     Br1317   1.917       .  S
C1321      C1326   1.393       .  A
C1321      H1328   1.085       .  S
C1322      C1323   1.417       .  A
C1323      C1324   1.400       .  A
C1323     Br1330   1.905       .  S
C1324      H1329   1.080       .  S
C1325      C1326   1.412       .  A
C1326     Br1327   1.897       .  S
C1331      C1332   1.402       .  A
C1331      C1336   1.395       .  A
C1331      H1338   1.080       .  S
C1332      C1333   1.409       .  A
C1333      C1334   1.409       .  A
C1334      C1335   1.417       .  A
C1334      H1339   1.054       .  S
C1335      C1336   1.416       .  A
C1336     Br1337   1.923       .  S
C1341      C1342   1.410       .  A
C1341      C1346   1.399       .  A
C1341      H1348   1.085       .  S
C1342      C1343   1.432       .  A
C1343      C1344   1.407       .  A
C1343     Br1350   1.898       .  S
C1344      C1345   1.401       .  A
C1344      H1349   1.085       .  S
C1345      C1346   1.415       .  A
C1346     Br1347   1.897       .  S
C1351      C1352   1.410       .  A
C1351      C1356   1.421       .  A
C1351      H1358   1.084       .  S
C1353      C1354   1.391       .  A
C1353     Br1360   1.926   1_554  S
C1354      C1355   1.416       .  A
C1354      H1359   1.072       .  S
C1356     Br1357   1.913       .  S
C1361      C1362   1.414       .  A
C1361      C1366   1.404       .  A
C1361      H1368   1.079       .  S
C1362      C1363   1.405       .  A
C1363      C1364   1.387       .  A
C1363     Br1370   1.913       .  S
C1364      C1365   1.410       .  A
C1364      H1369   1.080       .  S
C1365      C1366   1.413       .  A
C1366     Br1367   1.920       .  S
C1371      C1376   1.390       .  A
C1371      H1378   1.082       .  S
C1372      C1373   1.424       .  A
C1373      C1374   1.414       .  A
C1373     Br1380   1.910       .  S
C1374      H1379   1.069       .  S
C1375      C1376   1.422       .  A
C1376     Br1377   1.899       .  S
C1381      C1382   1.415       .  A
C1381      C1386   1.410       .  A
C1381      H1388   1.082       .  S
C1382      C1383   1.406       .  A
C1383      C1384   1.384       .  A
C1383     Br1390   1.923   1_554  S
C1384      C1385   1.410       .  A
C1384      H1389   1.081       .  S
C1385      C1386   1.416       .  A
C1386     Br1387   1.920       .  S
C1391      C1392   1.412       .  A
C1391      C1396   1.398       .  A
C1391      H1398   1.083       .  S
C1393      C1394   1.403       .  A
C1393     Br1400   1.913       .  S
C1394      C1395   1.409       .  A
C1394      H1399   1.085       .  S
C1396     Br1397   1.907       .  S
C1401      C1402   1.401       .  A
C1401      C1406   1.403       .  A
C1401      H1408   1.082       .  S
C1402      C1403   1.407       .  A
C1403      C1404   1.400       .  A
C1403     Br1410   1.915       .  S
C1404      C1405   1.413       .  A
C1404      H1409   1.078       .  S
C1405      C1406   1.422       .  A
C1406     Br1407   1.914       .  S
C1411      C1412   1.402       .  A
C1411      C1416   1.403       .  A
C1411      H1418   1.077       .  S
C1412      C1413   1.418       .  A
C1413      C1414   1.404       .  A
C1413     Br1420   1.923       .  S
C1414      C1415   1.418       .  A
C1414      H1419   1.077       .  S
C1415      C1416   1.403       .  A
C1416     Br1417   1.902       .  S
C1421      C1422   1.401       .  A
C1421      C1426   1.377       .  A
C1421      H1428   1.084       .  S
C1422      C1423   1.428       .  A
C1423      C1424   1.413       .  A
C1423     Br1430   1.920       .  S
C1424      C1425   1.408       .  A
C1424      H1429   1.083       .  S
C1425      C1426   1.392       .  A
C1426     Br1427   1.886       .  S
C1431      C1432   1.415       .  A
C1431      C1436   1.410       .  A
C1431      H1438   1.078       .  S
C1432      C1433   1.409       .  A
C1433      C1434   1.390       .  A
C1433     Br1440   1.914       .  S
C1434      C1435   1.399       .  A
C1434      H1439   1.073       .  S
C1435      C1436   1.415       .  A
