geometry optimzed in LAMMPS
_audit_creation_date              2020-11-30 
_audit_creation_method            'lammps2cif' 
_symmetry_space_group_name_H-M    'P1' 
_symmetry_Int_Tables_number       1 
_symmetry_cell_setting            triclinic 
loop_ 
_symmetry_equiv_pos_as_xyz 
  x,y,z 
_cell_length_a                    41.5557558 
_cell_length_b                    41.802048118939844 
_cell_length_c                    34.46269806284416 
_cell_angle_alpha                 90.5320761134216 
_cell_angle_beta                  87.59321380813773 
_cell_angle_gamma                 119.91655700522708 
loop_ 
_atom_site_label 
_atom_site_type_symbol 
_atom_site_fract_x 
_atom_site_fract_y 
_atom_site_fract_z 
_atom_site_charge 
N1          N  0.39537318  0.10261703  0.32068244    -0.03500
C2          C  0.36579453  0.09123364  0.29718310    -0.01000
C3          C  0.35149553  0.11478416  0.29915631    -0.23800
C4          C  0.37149342  0.14111906  0.99162122    -0.24000
C5          C  0.39843154  0.13386175  0.00392940    -0.01100
H6          H  0.32763696  0.11193087  0.28456453     0.12700
H7          H  0.36630240  0.16290616  0.00134304     0.12800
N8          N  0.09496370  0.20422862  0.32833651    -0.03500
C9          C  0.09036668  0.22930038  0.30862034    -0.01000
C10         C  0.10798630  0.26336297  0.32599653    -0.23800
C11         C  0.12397903  0.25914223  0.02474190    -0.24000
C12         C  0.11559091  0.22269629  0.02546486    -0.01100
H13         H  0.10923102  0.28850508  0.31620439     0.12700
H14         H  0.14168049  0.28075261  0.04415189     0.12800
N15         N  0.19506030  0.11206103  0.03480212    -0.03500
C16         C  0.21455230  0.10777020  0.06359600    -0.01000
C17         C  0.25052587  0.13709595  0.06302357    -0.23800
C18         C  0.25443231  0.15919644  0.36573811    -0.24000
C19         C  0.22066464  0.14338242  0.34806817    -0.01100
H20         H  0.27279492  0.14023816  0.08077680     0.12700
H21         H  0.28021410  0.18310986  0.35576046     0.12800
N22         N  0.10035187  0.42136395  0.33819960    -0.03500
C23         C  0.13328401  0.43282584  0.31855359    -0.01000
C24         C  0.15882754  0.43296836  0.34324721    -0.23800
C25         C  0.14091380  0.42042580  0.04538003    -0.24000
C26         C  0.10486947  0.41266065  0.04131888    -0.01100
H27         H  0.18570524  0.43624990  0.33501592     0.12700
H28         H  0.15133293  0.41234713  0.06948279     0.12800
N29         N  0.41840888  0.32587995  0.34384058    -0.03500
C30         C  0.44111938  0.31833177  0.32074502    -0.01000
C31         C  0.46083025  0.30704747  0.34257468    -0.23800
C32         C  0.44663705  0.30300280  0.04647164    -0.24000
C33         C  0.41837256  0.31120370  0.04560388    -0.01100
H34         H  0.48004756  0.29835654  0.33181440     0.12700
H35         H  0.45306415  0.29116721  0.07034266     0.12800
N36         N  0.31227891  0.41612506  0.29016808    -0.03500
C37         C  0.29092092  0.42433038  0.98122041    -0.01000
C38         C  0.26564365  0.42892586  0.96134799    -0.23800
C39         C  0.27110752  0.42306082  0.25657639    -0.24000
C40         C  0.29725879  0.41159119  0.25490628    -0.01100
H41         H  0.24412723  0.43369611  0.97375982     0.12700
H42         H  0.25288978  0.42047892  0.23395405     0.12800
O43         O  0.46077626  0.45124736  0.30017951    -0.88400
C44         C  0.43243723  0.00683935  0.04443497     0.87600
Mg45       Mg  0.50306106  0.43803786  0.31244541     1.58100
O46         O  0.48755433  0.05870349  0.29540475    -0.88100
O47         O  0.44751153  0.47856048  0.25545673    -0.75500
C48         C  0.15519956  0.09084442  0.02930813     0.92700
O49         O  0.46170577  0.44760183  0.05855908    -0.75300
O50         O  0.13708878  0.05656087  0.03808244    -0.82800
Mg51       Mg  0.41820606  0.43531728  0.01199172     1.58000
C52         C  0.07881522  0.16533497  0.32119206     0.92600
O53         O  0.36707787  0.41866478  0.30856430    -0.81100
H54         H  0.49634675  0.07052377  0.23852840    -0.06400
C55         C  0.04915155  0.07375100  0.05932553     0.87500
O56         O  0.04608427  0.48629419  0.27344784    -0.75600
O57         O  0.43113198  0.49265768  0.01246657    -0.88300
O58         O  0.04369120  0.14574804  0.31788444    -0.81100
C59         C  0.41977954  0.08689786  0.99031124     0.92700
C60         C  0.35186995  0.43540825  0.29383529     0.92600
Mg61       Mg  0.08588095  0.09176395  0.31279265     1.58000
O62         O  0.13902269  0.10672975  0.01432282    -0.81100
O63         O  0.04291279  0.08265544  0.26694659    -0.75300
O64         O  0.40940163  0.05512866  0.97621096    -0.81100
O65         O  0.40520020  0.37469810  0.00620700    -0.82900
O66         O  0.09364490  0.47326782  0.34286889    -0.81200
C67         C  0.00816889  0.07062520  0.26591882     0.87000
O68         O  0.07213843  0.03477097  0.31086399    -0.88300
O69         O  0.04311223  0.07708911  0.02533350    -0.88400
O70         O  0.06008948  0.05157162  0.06859274    -0.75500
Mg71       Mg  0.43036299  0.01559333  0.28901397     1.58000
O72         O  0.45198681  0.10543684  0.00445555    -0.82900
H73         H  0.46209737  0.43967934  0.24392553    -0.06600
O74         O  0.01687575  0.47236325  0.02943626    -0.88100
H75         H  0.00922517  0.46334277  0.08686912    -0.06400
H76         H  0.08764875  0.03661647  0.25482872    -0.06600
C77         C  0.49676732  0.46132915  0.05937623     0.87000
C78         C  0.45667564  0.45533847  0.26575698     0.87600
C79         C  0.06971283  0.02007133  0.27894881     0.87600
H80         H  0.04462705  0.08963864  0.08161439    -0.06600
O81         O  0.45573531  0.04047284  0.05075464    -0.75600
Mg82       Mg  0.07502938  0.01306228  0.03396402     1.58000
H83         H  0.41391994  0.48985686  0.06800328    -0.06600
C84         C  0.42890037  0.36433858  0.01042404     0.92600
O85         O  0.04554547  0.42074166  0.32438026    -0.82800
C86         C  0.07905231  0.43938060  0.33372709     0.92600
O87         O  0.37018657  0.46971898  0.28493848    -0.82800
Mg88       Mg  0.99937165  0.09071449  0.01474372     1.58200
O89         O  0.46281371  0.38781082  0.01538048    -0.81100
O90         O  0.09956786  0.15101204  0.32075747    -0.82800
C91         C  0.01107849  0.24313140  0.18743851     0.86400
C92         C  0.48904541  0.21427087  0.15771431    -0.53800
C93         C  0.46793727  0.22273433  0.13558262     0.09300
C94         C  0.47151199  0.26081765  0.14498324     0.20300
C95         C  0.03416675  0.27963044  0.16441181    -0.54500
C96         C  0.01373971  0.28841608  0.14138368     0.09400
C97         C  0.48255161  0.24969281  0.21062695    -0.54100
C98         C  0.46173652  0.25891812  0.18896529     0.10000
H99         H  0.49132032  0.18967766  0.15346354     0.14500
H100        H  0.45450964  0.26810273  0.12723918     0.00300
H101        H  0.06385823  0.29765290  0.16621030     0.14800
H102        H  0.48150482  0.25080941  0.24213545     0.14600
C103        C  0.25185138  0.44882995  0.13090992     0.86400
C104        C  0.27812206  0.96631380  0.16424301    -0.53800
C105        C  0.26893908  0.98595824  0.18952308     0.09300
C106        C  0.23217566  0.98458234  0.17981438     0.20300
C107        C  0.21294957  0.42440464  0.15082706    -0.54500
C108        C  0.20317887  0.44307547  0.17740756     0.09400
C109        C  0.24825636  0.98052173  0.11291032    -0.54100
C110        C  0.23688395  0.99879924  0.13784774     0.10000
H111        H  0.30282704  0.96395504  0.16685758     0.14500
H112        H  0.22383825  0.99975883  0.20024152     0.00300
H113        H  0.19388930  0.39606024  0.14394426     0.14800
H114        H  0.25293175  0.98671977  0.08195243     0.14600
C115        C  0.21605527  0.22215300  0.13350926     0.86400
C116        C  0.20917236  0.19772932  0.16964666    -0.53800
C117        C  0.23724494  0.21251070  0.19565212     0.09300
C118        C  0.27090350  0.25008847  0.18100246     0.20300
C119        C  0.22552188  0.26013198  0.14984802    -0.54500
C120        C  0.25376825  0.27447701  0.17498644     0.09400
C121        C  0.25296551  0.22712921  0.11609053    -0.54100
C122        C  0.28186362  0.24399705  0.13962922     0.10000
H123        H  0.18393493  0.17152872  0.17477197     0.14500
H124        H  0.29514938  0.26209127  0.19964976     0.00300
H125        H  0.21089927  0.27449491  0.14211566     0.14800
H126        H  0.25744900  0.22026180  0.08671966     0.14600
C127        C  0.29098728  0.42536112  0.02411678    -0.06200
C128        C  0.26275950  0.39485221  0.04519560    -0.17300
C129        C  0.25205805  0.39869540  0.08350494     0.11000
C130        C  0.26887070  0.43431590  0.10000134    -0.06100
C131        C  0.30217632  0.46180152  0.08200456    -0.17400
C132        C  0.31187179  0.45858933  0.04382958     0.11000
S133        S  0.22031068  0.35715265  0.10999795    -0.32300
S134        S  0.34726204  0.00025519  0.02124275    -0.32300
H135        H  0.33121467  0.49405000  0.31845256     0.29000
H136        H  0.23611311  0.37110554  0.14599951     0.29000
H137        H  0.24766295  0.36843696  0.03105646     0.19600
H138        H  0.31736588  0.98863302  0.09536740     0.19600
C139        C  0.26546301  0.30956857  0.19563470    -0.06200
C140        C  0.30318388  0.33709980  0.19513002    -0.17300
C141        C  0.31453388  0.37157295  0.21217867     0.11000
C142        C  0.28794735  0.37781915  0.23234183    -0.06100
C143        C  0.25068662  0.34912202  0.23473213    -0.17400
C144        C  0.23928813  0.31561551  0.21661023     0.11000
S145        S  0.36276216  0.40645355  0.20611641    -0.32300
S146        S  0.19135364  0.28069034  0.22419963    -0.32300
H147        H  0.19805383  0.25108379  0.22794137     0.29000
H148        H  0.35660537  0.43662489  0.20747566     0.29000
H149        H  0.32383647  0.33215210  0.18053939     0.19600
H150        H  0.23011765  0.35226084  0.25210116     0.19600
C151        C  0.38559662  0.29510967  0.07357321    -0.06200
C152        C  0.36766692  0.31527303  0.08225732    -0.17300
C153        C  0.33378325  0.29938275  0.10346806     0.11000
C154        C  0.31978138  0.26432525  0.12159989    -0.06100
C155        C  0.33845115  0.24477205  0.11467076    -0.17400
C156        C  0.36940558  0.25854159  0.08888357     0.11000
S157        S  0.30772251  0.32308045  0.10095614    -0.32300
S158        S  0.38136289  0.22505647  0.07146830    -0.32300
H159        H  0.38512838  0.23593702  0.36562343     0.29000
H160        H  0.27822790  0.29410453  0.08189392     0.29000
H161        H  0.37852261  0.34267315  0.07026532     0.19600
H162        H  0.32624366  0.21674284  0.12581218     0.19600
C163        C  0.43455004  0.30745681  0.27945452    -0.06200
C164        C  0.40940147  0.27028304  0.27170528    -0.17300
C165        C  0.41269540  0.25420418  0.23696636     0.11000
C166        C  0.44164071  0.27560569  0.20946073    -0.06100
C167        C  0.46186713  0.31392696  0.21422461    -0.17400
C168        C  0.45923581  0.32999793  0.24932341     0.11000
S169        S  0.38302852  0.20520127  0.23152361    -0.32300
S170        S  0.99050201  0.37830364  0.25695068    -0.32300
H171        H  0.50593005  0.38712570  0.21878154     0.29000
H172        H  0.38904811  0.20574115  0.19097850     0.29000
H173        H  0.38980892  0.25276932  0.29441790     0.19600
H174        H  0.98349478  0.33043234  0.19293664     0.19600
C175        C  0.07460706  0.38207641  0.06438705    -0.06200
C176        C  0.06399496  0.34636191  0.05156717    -0.17300
C177        C  0.04453832  0.31569761  0.07636731     0.11000
C178        C  0.03195101  0.32004301  0.11359030    -0.06100
C179        C  0.04162486  0.35571239  0.12610553    -0.17400
C180        C  0.06333630  0.38682196  0.10217566     0.11000
S181        S  0.54240814  0.27294466  0.06275148    -0.32300
S182        S  0.07821154  0.43171324  0.12266851    -0.32300
H183        H  0.08766840  0.45151426  0.08739509     0.29000
H184        H  0.54817674  0.28043998  0.02255704     0.29000
H185        H  0.07472529  0.34305200  0.02352117     0.19600
H186        H  0.03451653  0.35978472  0.15550021     0.19600
C187        C  0.13654717  0.42692018  0.27635365    -0.06200
C188        C  0.14260882  0.39775265  0.26550240    -0.17300
C189        C  0.15878138  0.39759195  0.22911203     0.11000
C190        C  0.16873682  0.42723674  0.20289150    -0.06100
C191        C  0.15384996  0.45049571  0.21030585    -0.17400
C192        C  0.13936366  0.45178119  0.24723601     0.11000
S193        S  0.16536744  0.35884826  0.21877015    -0.32300
S194        S  0.12991683  0.48870531  0.25590771    -0.32300
H195        H  0.14725781  0.49814372  0.29136175     0.29000
H196        H  0.20249475  0.37915900  0.20587198     0.29000
H197        H  0.13775660  0.37667876  0.28676225     0.19600
H198        H  0.15894966  0.97181422  0.18924958     0.19600
C199        C  0.22361645  0.02395608  0.12314901    -0.06200
C200        C  0.20762940  0.01644996  0.08652014    -0.17300
C201        C  0.20163433  0.04200420  0.06694218     0.11000
C202        C  0.20612200  0.07389943  0.08600374    -0.06100
C203        C  0.21677325  0.07875510  0.12493537    -0.17400
C204        C  0.22753464  0.05560095  0.14283621     0.11000
S205        S  0.19590703  0.03559308  0.01564461    -0.32300
S206        S  0.25087484  0.07158514  0.18781040    -0.32300
H207        H  0.27838933  0.06229370  0.17813006     0.29000
H208        H  0.22654305  0.07036123  0.33898336     0.29000
H209        H  0.20291791  0.49193742  0.07107153     0.19600
H210        H  0.22180677  0.10380591  0.13959698     0.19600
C211        C  0.21811351  0.15864991  0.30966547    -0.06200
C212        C  0.23725274  0.19728704  0.30591849    -0.17300
C213        C  0.24534351  0.21569374  0.26990115     0.11000
C214        C  0.23260329  0.19503751  0.23537493    -0.06100
C215        C  0.21290390  0.15613088  0.23907735    -0.17400
C216        C  0.20617972  0.13783273  0.27534227     0.11000
S217        S  0.27138822  0.26555596  0.27033254    -0.32300
S218        S  0.18570920  0.08835415  0.27631331    -0.32300
H219        H  0.17734556  0.08229588  0.23686712     0.29000
H220        H  0.28144070  0.27016308  0.30931593     0.29000
H221        H  0.24717636  0.21343072  0.33190731     0.19600
H222        H  0.20401002  0.13983128  0.21306246     0.19600
C223        C  0.13602107  0.21057810  0.04934916    -0.06200
C224        C  0.12337725  0.19847877  0.08756505    -0.17300
C225        C  0.14760379  0.19893395  0.11529662     0.11000
C226        C  0.18532847  0.21050031  0.10401822    -0.06100
C227        C  0.19664555  0.22156914  0.06472339    -0.17400
C228        C  0.17269125  0.22144800  0.03781832     0.11000
S229        S  0.13068016  0.18958355  0.16543389    -0.32300
S230        S  0.19231344  0.24284074  0.99104836    -0.32300
H231        H  0.16185718  0.21775119  0.30323666     0.29000
H232        H  0.09325539  0.17819851  0.15922162     0.29000
H233        H  0.09545046  0.19202445  0.09642384     0.19600
H234        H  0.22531416  0.23468380  0.05477988     0.19600
C235        C  0.03157498  0.23029661  0.21283946    -0.06200
C236        C  0.01171439  0.20794574  0.24537147    -0.17300
C237        C  0.03026596  0.20599978  0.27700795     0.11000
C238        C  0.06895868  0.22236930  0.27412094    -0.06100
C239        C  0.08801591  0.23772781  0.23878007    -0.17400
C240        C  0.06966939  0.24109998  0.20748963     0.11000
S241        S  0.00349726  0.18584672  0.98793479    -0.32300
S242        S  0.09593691  0.25657563  0.16181649    -0.32300
H243        H  0.06505605  0.23726077  0.13865342     0.29000
H244        H  0.03014835  0.20817939  0.01434131     0.29000
H245        H  0.98177441  0.19519570  0.24789858     0.19600
H246        H  0.11746837  0.24820716  0.23609406     0.19600
C247        C  0.44834013  0.19900425  0.10249820    -0.06200
C248        C  0.45325402  0.21583019  0.06631271    -0.17300
C249        C  0.43993747  0.19511646  0.03294745     0.11000
C250        C  0.42219735  0.15608749  0.03520423    -0.06100
C251        C  0.41724774  0.13898191  0.07139074    -0.17400
C252        C  0.42885132  0.15993597  0.10514754     0.11000
S253        S  0.44549153  0.22056028  0.32194888    -0.32300
S254        S  0.41415861  0.13513001  0.15080521    -0.32300
H255        H  0.41342090  0.16349346  0.17232878     0.29000
H256        H  0.43924001  0.19240596  0.29571590     0.29000
H257        H  0.96727473  0.24548905  0.06388919     0.19600
H258        H  0.40115018  0.10914472  0.07385102     0.19600
C259        C  0.34554459  0.05673818  0.27511369    -0.06200
C260        C  0.30732150  0.03562558  0.28485099    -0.17300
C261        C  0.28173115  0.01219834  0.25822866     0.11000
C262        C  0.29452721  0.00846634  0.22076091    -0.06100
C263        C  0.33329732  0.02706177  0.21234921    -0.17400
C264        C  0.35875368  0.05136899  0.23872218     0.11000
S265        S  0.23315110  0.98830912  0.27307898    -0.32300
S266        S  0.40721231  0.07568079  0.22315469    -0.32300
H267        H  0.41732180  0.10834993  0.24356118     0.29000
H268        H  0.23749846  0.99753934  0.31258974     0.30500
H269        H  0.29721291  0.04001526  0.31274693     0.19600
H270        H  0.34395057  0.02457453  0.18394690     0.19600
N271        N  0.39537330  0.10261717  0.65401589    -0.03500
C272        C  0.36579485  0.09123386  0.63051674    -0.01000
C273        C  0.35149599  0.11478460  0.63249016    -0.23800
C274        C  0.37149317  0.14111889  0.32495432    -0.24000
C275        C  0.39843148  0.13386171  0.33726249    -0.01100
H276        H  0.32763863  0.11193156  0.61789841     0.12700
H277        H  0.36630241  0.16290615  0.33467625     0.12800
N278        N  0.09496371  0.20422860  0.66166976    -0.03500
C279        C  0.09036665  0.22930039  0.64195360    -0.01000
C280        C  0.10798624  0.26336286  0.65932978    -0.23800
C281        C  0.12397887  0.25914211  0.35807500    -0.24000
C282        C  0.11559077  0.22269612  0.35879810    -0.01100
H283        H  0.10923099  0.28850490  0.64953837     0.12700
H284        H  0.14167994  0.28075181  0.37748464     0.12800
N285        N  0.19506024  0.11206095  0.36813550    -0.03500
C286        C  0.21455240  0.10777013  0.39692935    -0.01000
C287        C  0.25052588  0.13709592  0.39635692    -0.23800
C288        C  0.25443240  0.15919639  0.69907132    -0.24000
C289        C  0.22066465  0.14338247  0.68140151    -0.01100
H290        H  0.27279558  0.14023873  0.41411021     0.12700
H291        H  0.28021440  0.18310979  0.68909347     0.12800
N292        N  0.10035190  0.42136389  0.67153291    -0.03500
C293        C  0.13328399  0.43282573  0.65188692    -0.01000
C294        C  0.15882754  0.43296830  0.67658069    -0.23800
C295        C  0.14091385  0.42042572  0.37871378    -0.24000
C296        C  0.10486957  0.41266070  0.37465247    -0.01100
H297        H  0.18570493  0.43624952  0.66834937     0.12700
H298        H  0.15133326  0.41234693  0.40281757     0.12800
N299        N  0.41840882  0.32587993  0.67717392    -0.03500
C300        C  0.44111932  0.31833175  0.65407834    -0.01000
C301        C  0.46083025  0.30704752  0.67590792    -0.23800
C302        C  0.44663697  0.30300265  0.37980531    -0.24000
C303        C  0.41837255  0.31120353  0.37893736    -0.01100
H304        H  0.48004733  0.29835626  0.66514774     0.12700
H305        H  0.45306465  0.29116618  0.40367717     0.12800
N306        N  0.31227892  0.41612501  0.62350138    -0.03500
C307        C  0.29092063  0.42433030  0.31455398    -0.01000
C308        C  0.26564340  0.42892590  0.29468180    -0.23800
C309        C  0.27110756  0.42306073  0.58990972    -0.24000
C310        C  0.29725891  0.41159122  0.58823948    -0.01100
H311        H  0.24412599  0.43369631  0.30709380     0.12700
H312        H  0.25289005  0.42047934  0.56728732     0.12800
O313        O  0.46077632  0.45124723  0.63351271    -0.88400
C314        C  0.43243714  0.00683928  0.37776808     0.87600
Mg315      Mg  0.50306116  0.43803793  0.64577866     1.58100
O316        O  0.48755427  0.05870349  0.62873805    -0.88100
O317        O  0.44751163  0.47856025  0.58878991    -0.75500
C318        C  0.15519953  0.09084440  0.36264164     0.92700
O319        O  0.46170563  0.44760191  0.39189202    -0.75300
O320        O  0.13708885  0.05656090  0.37141572    -0.82800
Mg321      Mg  0.41820601  0.43531726  0.34532506     1.58000
C322        C  0.07881522  0.16533505  0.65452547     0.92600
O323        O  0.36707797  0.41866483  0.64189766    -0.81100
H324        H  0.49634692  0.07052425  0.57186146    -0.06400
C325        C  0.04915165  0.07375084  0.39265842     0.87500
O326        O  0.04608430  0.48629423  0.60678113    -0.75600
O327        O  0.43113184  0.49265761  0.34580011    -0.88300
O328        O  0.04369122  0.14574816  0.65121766    -0.81100
C329        C  0.41977953  0.08689788  0.32364446     0.92700
C330        C  0.35186995  0.43540818  0.62716862     0.92600
Mg331      Mg  0.08588097  0.09176401  0.64612595     1.58000
O332        O  0.13902266  0.10672967  0.34765619    -0.81100
O333        O  0.04291286  0.08265543  0.60028005    -0.75300
O334        O  0.40940166  0.05512868  0.30954413    -0.81100
O335        O  0.40520018  0.37469816  0.33954031    -0.82900
O336        O  0.09364489  0.47326774  0.67620229    -0.81200
C337        C  0.00816896  0.07062516  0.59925213     0.87000
O338        O  0.07213849  0.03477096  0.64419734    -0.88300
O339        O  0.04311229  0.07708880  0.35866617    -0.88400
O340        O  0.06008968  0.05157142  0.40192573    -0.75500
Mg341      Mg  0.43036310  0.01559326  0.62234737     1.58000
O342        O  0.45198686  0.10543689  0.33778884    -0.82900
H343        H  0.46209743  0.43967816  0.57725793    -0.06600
O344        O  0.01687569  0.47236332  0.36276953    -0.88100
H345        H  0.00922542  0.46334302  0.42020243    -0.06400
H346        H  0.08764879  0.03661658  0.58816207    -0.06600
C347        C  0.49676727  0.46132928  0.39270953     0.87000
C348        C  0.45667571  0.45533841  0.59909041     0.87600
C349        C  0.06971288  0.02007139  0.61228212     0.87600
H350        H  0.04462773  0.08963809  0.41494599    -0.06600
O351        O  0.45573505  0.04047261  0.38408814    -0.75600
Mg352      Mg  0.07502945  0.01306228  0.36729734     1.58000
H353        H  0.41391821  0.48985554  0.40133766    -0.06600
C354        C  0.42890022  0.36433857  0.34375741     0.92600
O355        O  0.04554550  0.42074156  0.65771340    -0.82800
C356        C  0.07905228  0.43938047  0.66706045     0.92600
O357        O  0.37018655  0.46971889  0.61827180    -0.82800
Mg358      Mg  0.99937163  0.09071438  0.34807701     1.58200
O359        O  0.46281356  0.38781072  0.34871378    -0.81100
O360        O  0.09956783  0.15101204  0.65409093    -0.82800
C361        C  0.01107871  0.24313147  0.52077182     0.86400
C362        C  0.48904555  0.21427068  0.49104748    -0.53800
C363        C  0.46793740  0.22273410  0.46891592     0.09300
C364        C  0.47151214  0.26081762  0.47831664     0.20300
C365        C  0.03416708  0.27963061  0.49774518    -0.54500
C366        C  0.01374008  0.28841622  0.47471720     0.09400
C367        C  0.48255165  0.24969264  0.54396017    -0.54100
C368        C  0.46173668  0.25891817  0.52229854     0.10000
H369        H  0.49132034  0.18967607  0.48679657     0.14500
H370        H  0.45450967  0.26810279  0.46057249     0.00300
H371        H  0.06385931  0.29765377  0.49954408     0.14800
H372        H  0.48150501  0.25080939  0.57546809     0.14600
C373        C  0.25185095  0.44882982  0.46424364     0.86400
C374        C  0.27812209  0.96631370  0.49757637    -0.53800
C375        C  0.26893910  0.98595808  0.52285661     0.09300
C376        C  0.23217567  0.98458227  0.51314789     0.20300
C377        C  0.21294935  0.42440458  0.48416059    -0.54500
C378        C  0.20317868  0.44307558  0.51074119     0.09400
C379        C  0.24825642  0.98052178  0.44624398    -0.54100
C380        C  0.23688396  0.99879916  0.47118137     0.10000
H381        H  0.30282705  0.96395499  0.50019062     0.14500
H382        H  0.22383837  0.99975838  0.53357461     0.00300
H383        H  0.19388940  0.39606058  0.47727769     0.14800
H384        H  0.25293201  0.98672001  0.41528708     0.14600
C385        C  0.21605509  0.22215313  0.46684287     0.86400
C386        C  0.20917222  0.19772933  0.50298007    -0.53800
C387        C  0.23724485  0.21251069  0.52898552     0.09300
C388        C  0.27090345  0.25008847  0.51433590     0.20300
C389        C  0.22552171  0.26013204  0.48318144    -0.54500
C390        C  0.25376813  0.27447704  0.50831988     0.09400
C391        C  0.25296540  0.22712936  0.44942422    -0.54100
C392        C  0.28186368  0.24399723  0.47296293     0.10000
H393        H  0.18393516  0.17152892  0.50810522     0.14500
H394        H  0.29514921  0.26209082  0.53298306     0.00300
H395        H  0.21089914  0.27449530  0.47544849     0.14800
H396        H  0.25744848  0.22026225  0.42005529     0.14600
C397        C  0.29098730  0.42536110  0.35745014    -0.06200
C398        C  0.26275955  0.39485220  0.37852903    -0.17300
C399        C  0.25205803  0.39869538  0.41683844     0.11000
C400        C  0.26887038  0.43431564  0.43333475    -0.06100
C401        C  0.30217610  0.46180120  0.41533787    -0.17400
C402        C  0.31187163  0.45858904  0.37716270     0.11000
S403        S  0.22031064  0.35715254  0.44333127    -0.32300
S404        S  0.34726182  0.00025518  0.35457544    -0.32300
H405        H  0.33121454  0.49404997  0.65178592     0.29000
H406        H  0.23611299  0.37110538  0.47933287     0.29000
H407        H  0.24766351  0.36843766  0.36439043     0.19600
H408        H  0.31736621  0.98863320  0.42870069     0.19600
C409        C  0.26546332  0.30956861  0.52896805    -0.06200
C410        C  0.30318419  0.33709980  0.52846330    -0.17300
C411        C  0.31453403  0.37157294  0.54551186     0.11000
C412        C  0.28794743  0.37781904  0.56567515    -0.06100
C413        C  0.25068668  0.34912193  0.56806544    -0.17400
C414        C  0.23928832  0.31561552  0.54994344     0.11000
S415        S  0.36276209  0.40645395  0.53944967    -0.32300
S416        S  0.19135380  0.28069003  0.55753295    -0.32300
H417        H  0.19805404  0.25108349  0.56127462     0.29000
H418        H  0.35660543  0.43662538  0.54080907     0.29000
H419        H  0.32383730  0.33215213  0.51387196     0.19600
H420        H  0.23011773  0.35226060  0.58543430     0.19600
C421        C  0.38559669  0.29511005  0.40690642    -0.06200
C422        C  0.36766713  0.31527346  0.41559049    -0.17300
C423        C  0.33378353  0.29938314  0.43680122     0.11000
C424        C  0.31978150  0.26432535  0.45493313    -0.06100
C425        C  0.33845116  0.24477209  0.44800408    -0.17400
C426        C  0.36940552  0.25854173  0.42221684     0.11000
S427        S  0.30772236  0.32308027  0.43428949    -0.32300
S428        S  0.38136279  0.22505641  0.40480182    -0.32300
H429        H  0.38512837  0.23593704  0.69895744     0.29000
H430        H  0.27822816  0.29410416  0.41522700     0.29000
H431        H  0.37852352  0.34267541  0.40359752     0.19600
H432        H  0.32624370  0.21674294  0.45914545     0.19600
C433        C  0.43455005  0.30745686  0.61278785    -0.06200
C434        C  0.40940146  0.27028308  0.60503874    -0.17300
C435        C  0.41269544  0.25420428  0.57029972     0.11000
C436        C  0.44164076  0.27560567  0.54279413    -0.06100
C437        C  0.46186710  0.31392687  0.54755790    -0.17400
C438        C  0.45923581  0.32999792  0.58265665     0.11000
S439        S  0.38302865  0.20520147  0.56485688    -0.32300
S440        S  0.99050208  0.37830368  0.59028399    -0.32300
H441        H  0.50593015  0.38712572  0.55211387     0.29000
H442        H  0.38904851  0.20574183  0.52431177     0.29000
H443        H  0.38980909  0.25276962  0.62775113     0.19600
H444        H  0.98349567  0.33043299  0.52626875     0.19600
C445        C  0.07460693  0.38207637  0.39772040    -0.06200
C446        C  0.06399492  0.34636182  0.38490050    -0.17300
C447        C  0.04453831  0.31569750  0.40970078     0.11000
C448        C  0.03195101  0.32004293  0.44692362    -0.06100
C449        C  0.04162477  0.35571220  0.45943882    -0.17400
C450        C  0.06333613  0.38682182  0.43550897     0.11000
S451        S  0.54240810  0.27294444  0.39608573    -0.32300
S452        S  0.07821129  0.43171312  0.45600181    -0.32300
H453        H  0.08766818  0.45151426  0.42072844     0.29000
H454        H  0.54817667  0.28043932  0.35589124     0.29000
H455        H  0.07472526  0.34305200  0.35685473     0.19600
H456        H  0.03451639  0.35978434  0.48883342     0.19600
C457        C  0.13654721  0.42692020  0.60968684    -0.06200
C458        C  0.14260882  0.39775270  0.59883565    -0.17300
C459        C  0.15878138  0.39759205  0.56244530     0.11000
C460        C  0.16873674  0.42723690  0.53622471    -0.06100
C461        C  0.15385002  0.45049590  0.54363886    -0.17400
C462        C  0.13936379  0.45178135  0.58056903     0.11000
S463        S  0.16536810  0.35884865  0.55210327    -0.32300
S464        S  0.12991706  0.48870540  0.58924112    -0.32300
H465        H  0.14725776  0.49814403  0.62469530     0.29000
H466        H  0.20249534  0.37915980  0.53920498     0.29000
H467        H  0.13775651  0.37667866  0.62009570     0.19600
H468        H  0.15895029  0.97181562  0.52258229     0.19600
C469        C  0.22361641  0.02395584  0.45648239    -0.06200
C470        C  0.20762946  0.01644981  0.41985339    -0.17300
C471        C  0.20163443  0.04200418  0.40027531     0.11000
C472        C  0.20612199  0.07389913  0.41933669    -0.06100
C473        C  0.21677308  0.07875470  0.45826837    -0.17400
C474        C  0.22753467  0.05560054  0.47616928     0.11000
S475        S  0.19590762  0.03559367  0.34897768    -0.32300
S476        S  0.25087542  0.07158499  0.52114331    -0.32300
H477        H  0.27838978  0.06229336  0.51146287     0.29000
H478        H  0.22654302  0.07036131  0.67231723     0.29000
H479        H  0.20291825  0.49193707  0.40440415     0.19600
H480        H  0.22180603  0.10380380  0.47292889     0.19600
C481        C  0.21811359  0.15865002  0.64299894    -0.06200
C482        C  0.23725283  0.19728713  0.63925191    -0.17300
C483        C  0.24534358  0.21569379  0.60323463     0.11000
C484        C  0.23260328  0.19503743  0.56870834    -0.06100
C485        C  0.21290388  0.15613076  0.57241074    -0.17400
C486        C  0.20617972  0.13783267  0.60867567     0.11000
S487        S  0.27138826  0.26555599  0.60366574    -0.32300
S488        S  0.18570919  0.08835405  0.60964665    -0.32300
H489        H  0.17734526  0.08229552  0.57020053     0.29000
H490        H  0.28144068  0.27016297  0.64264914     0.29000
H491        H  0.24717686  0.21343142  0.66524151     0.19600
H492        H  0.20400998  0.13983112  0.54639589     0.19600
C493        C  0.13602092  0.21057795  0.38268250    -0.06200
C494        C  0.12337717  0.19847863  0.42089841    -0.17300
C495        C  0.14760376  0.19893389  0.44862995     0.11000
C496        C  0.18532841  0.21050020  0.43735150    -0.06100
C497        C  0.19664549  0.22156909  0.39805665    -0.17400
C498        C  0.17269113  0.22144796  0.37115166     0.11000
S499        S  0.13068009  0.18958339  0.49876722    -0.32300
S500        S  0.19231344  0.24284079  0.32438174    -0.32300
H501        H  0.16185776  0.21775163  0.63657017     0.29000
H502        H  0.09325532  0.17819832  0.49255491     0.29000
H503        H  0.09545024  0.19202411  0.42975723     0.19600
H504        H  0.22531367  0.23468321  0.38811299     0.19600
C505        C  0.03157487  0.23029652  0.54617284    -0.06200
C506        C  0.01171421  0.20794562  0.57870478    -0.17300
C507        C  0.03026591  0.20599978  0.61034122     0.11000
C508        C  0.06895867  0.22236935  0.60745419    -0.06100
C509        C  0.08801587  0.23772781  0.57211343    -0.17400
C510        C  0.06966937  0.24109993  0.54082303     0.11000
S511        S  0.00349720  0.18584673  0.32126820    -0.32300
S512        S  0.09593699  0.25657556  0.49514990    -0.32300
H513        H  0.06505605  0.23726083  0.47198692     0.29000
H514        H  0.03014817  0.20817934  0.34767489     0.29000
H515        H  0.98177378  0.19519516  0.58123181     0.19600
H516        H  0.11746873  0.24820745  0.56942744     0.19600
C517        C  0.44834013  0.19900412  0.43583137    -0.06200
C518        C  0.45325395  0.21583001  0.39964592    -0.17300
C519        C  0.43993741  0.19511634  0.36628071     0.11000
C520        C  0.42219714  0.15608716  0.36853752    -0.06100
C521        C  0.41724754  0.13898160  0.40472399    -0.17400
C522        C  0.42885118  0.15993565  0.43848072     0.11000
S523        S  0.44549148  0.22055990  0.65528190    -0.32300
S524        S  0.41415866  0.13513027  0.48413860    -0.32300
H525        H  0.41342097  0.16349400  0.50566164     0.29000
H526        H  0.43924015  0.19240561  0.62904889     0.29000
H527        H  0.96727481  0.24548930  0.39722240     0.19600
H528        H  0.40114914  0.10914286  0.40718437     0.19600
C529        C  0.34554455  0.05673838  0.60844734    -0.06200
C530        C  0.30732156  0.03562574  0.61818473    -0.17300
C531        C  0.28173117  0.01219845  0.59156251     0.11000
C532        C  0.29452723  0.00846634  0.55409455    -0.06100
C533        C  0.33329730  0.02706173  0.54568284    -0.17400
C534        C  0.35875366  0.05136896  0.57205574     0.11000
S535        S  0.23315117  0.98830928  0.60641273    -0.32300
S536        S  0.40721224  0.07568083  0.55648803    -0.32300
H537        H  0.41732157  0.10834986  0.57689464     0.29000
H538        H  0.23749889  0.99753948  0.64592350     0.30500
H539        H  0.29721257  0.04001576  0.64608198     0.19600
H540        H  0.34395058  0.02457451  0.51728025     0.19600
N541        N  0.39537329  0.10261707  0.98734926    -0.03500
C542        C  0.36579478  0.09123366  0.96385003    -0.01000
C543        C  0.35149593  0.11478427  0.96582318    -0.23800
C544        C  0.37149337  0.14111931  0.65828817    -0.24000
C545        C  0.39843146  0.13386191  0.67059612    -0.01100
H546        H  0.32763830  0.11193111  0.95123169     0.12700
H547        H  0.36630225  0.16290746  0.66801044     0.12800
N548        N  0.09496366  0.20422864  0.99500334    -0.03500
C549        C  0.09036669  0.22930039  0.97528714    -0.01000
C550        C  0.10798648  0.26336304  0.99266347    -0.23800
C551        C  0.12397874  0.25914185  0.69140824    -0.24000
C552        C  0.11559072  0.22269597  0.69213131    -0.01100
H553        H  0.10923099  0.28850465  0.98287173     0.12700
H554        H  0.14167935  0.28075091  0.71081700     0.12800
N555        N  0.19506023  0.11206095  0.70146888    -0.03500
C556        C  0.21455226  0.10777016  0.73026269    -0.01000
C557        C  0.25052584  0.13709590  0.72969025    -0.23800
C558        C  0.25443264  0.15919656  0.03240473    -0.24000
C559        C  0.22066497  0.14338258  0.01473474    -0.01100
H560        H  0.27279513  0.14023833  0.74744315     0.12700
H561        H  0.28021553  0.18311050  0.02242671     0.12800
N562        N  0.10035178  0.42136387  0.00486615    -0.03500
C563        C  0.13328390  0.43282572  0.98522004    -0.01000
C564        C  0.15882755  0.43296838  0.00991347    -0.23800
C565        C  0.14091380  0.42042557  0.71204722    -0.24000
C566        C  0.10486961  0.41266053  0.70798571    -0.01100
H567        H  0.18570493  0.43624968  0.00168248     0.12700
H568        H  0.15133307  0.41234630  0.73615125     0.12800
N569        N  0.41840892  0.32587996  0.01050716    -0.03500
C570        C  0.44111943  0.31833154  0.98741154    -0.01000
C571        C  0.46083051  0.30704749  0.00924100    -0.23800
C572        C  0.44663694  0.30300269  0.71313856    -0.24000
C573        C  0.41837251  0.31120356  0.71227069    -0.01100
H574        H  0.48004829  0.29835581  0.99848067     0.12700
H575        H  0.45306464  0.29116671  0.73701001     0.12800
N576        N  0.31227903  0.41612510  0.95683455    -0.03500
C577        C  0.29092073  0.42433036  0.64788736    -0.01000
C578        C  0.26564346  0.42892587  0.62801517    -0.23800
C579        C  0.27110759  0.42306063  0.92324250    -0.24000
C580        C  0.29725886  0.41159111  0.92157258    -0.01100
H581        H  0.24412601  0.43369587  0.64042704     0.12700
H582        H  0.25288910  0.42047874  0.90061937     0.12800
O583        O  0.46077624  0.45124755  0.96684653    -0.88400
C584        C  0.43243724  0.00683937  0.71110155     0.87600
Mg585      Mg  0.50306108  0.43803789  0.97911210     1.58100
O586        O  0.48755415  0.05870341  0.96207143    -0.88100
O587        O  0.44751148  0.47856072  0.92212372    -0.75500
C588        C  0.15519942  0.09084438  0.69597482     0.92700
O589        O  0.46170566  0.44760193  0.72522536    -0.75300
O590        O  0.13708875  0.05656084  0.70474912    -0.82800
Mg591      Mg  0.41820599  0.43531720  0.67865832     1.58000
C592        C  0.07881508  0.16533495  0.98785884     0.92600
O593        O  0.36707801  0.41866482  0.97523084    -0.81100
H594        H  0.49634561  0.07052364  0.90519435    -0.06400
C595        C  0.04915164  0.07375093  0.72599199     0.87500
O596        O  0.04608397  0.48629385  0.94011476    -0.75600
O597        O  0.43113148  0.49265730  0.67913391    -0.88300
O598        O  0.04369116  0.14574808  0.98455105    -0.81100
C599        C  0.41977960  0.08689789  0.65697797     0.92700
C600        C  0.35187001  0.43540832  0.96050204     0.92600
Mg601      Mg  0.08588080  0.09176386  0.97945939     1.58000
O602        O  0.13902263  0.10672972  0.68098955    -0.81100
O603        O  0.04291291  0.08265541  0.93361361    -0.75300
O604        O  0.40940169  0.05512869  0.64287752    -0.81100
O605        O  0.40520020  0.37469814  0.67287375    -0.82900
O606        O  0.09364494  0.47326783  0.00953560    -0.81200
C607        C  0.00816899  0.07062514  0.93258571     0.87000
O608        O  0.07213794  0.03477059  0.97753134    -0.88300
O609        O  0.04311229  0.07708890  0.69199976    -0.88400
O610        O  0.06008967  0.05157160  0.73525934    -0.75500
Mg611      Mg  0.43036299  0.01559330  0.95568074     1.58000
O612        O  0.45198695  0.10543698  0.67112214    -0.82900
H613        H  0.46209652  0.43967951  0.91059318    -0.06600
O614        O  0.01687572  0.47236328  0.69610284    -0.88100
H615        H  0.00922546  0.46334274  0.75353571    -0.06400
H616        H  0.08764719  0.03661552  0.92149760    -0.06600
C617        C  0.49676733  0.46132924  0.72604283     0.87000
C618        C  0.45667564  0.45533865  0.93242391     0.87600
C619        C  0.06971262  0.02007119  0.94561577     0.87600
H620        H  0.04462785  0.08963877  0.74827984    -0.06600
O621        O  0.45573520  0.04047276  0.71742129    -0.75600
Mg622      Mg  0.07502942  0.01306225  0.70063074     1.58000
H623        H  0.41391759  0.48985500  0.73467252    -0.06600
C624        C  0.42890025  0.36433857  0.67709077     0.92600
O625        O  0.04554550  0.42074160  0.99104688    -0.82800
C626        C  0.07905227  0.43938056  0.00039393     0.92600
O627        O  0.37018655  0.46971901  0.95160528    -0.82800
Mg628      Mg  0.99937166  0.09071443  0.68141030     1.58200
O629        O  0.46281364  0.38781078  0.68204705    -0.81100
O630        O  0.09956774  0.15101198  0.98742416    -0.82800
C631        C  0.01107861  0.24313155  0.85410489     0.86400
C632        C  0.48904558  0.21427063  0.82438075    -0.53800
C633        C  0.46793741  0.22273407  0.80224921     0.09300
C634        C  0.47151207  0.26081762  0.81164966     0.20300
C635        C  0.03416686  0.27963056  0.83107834    -0.54500
C636        C  0.01373985  0.28841632  0.80805029     0.09400
C637        C  0.48255161  0.24969257  0.87729315    -0.54100
C638        C  0.46173657  0.25891811  0.85563149     0.10000
H639        H  0.49132026  0.18967603  0.82013026     0.14500
H640        H  0.45450993  0.26810261  0.79390565     0.00300
H641        H  0.06385828  0.29765295  0.83287692     0.14800
H642        H  0.48150505  0.25080919  0.90879996     0.14600
C643        C  0.25185118  0.44883001  0.79757654     0.86400
C644        C  0.27812216  0.96631384  0.83090967    -0.53800
C645        C  0.26893920  0.98595822  0.85618979     0.09300
C646        C  0.23217575  0.98458225  0.84648104     0.20300
C647        C  0.21294947  0.42440467  0.81749377    -0.54500
C648        C  0.20317885  0.44307554  0.84407434     0.09400
C649        C  0.24825648  0.98052183  0.77957691    -0.54100
C650        C  0.23688404  0.99879916  0.80451433     0.10000
H651        H  0.30282717  0.96395524  0.83352399     0.14500
H652        H  0.22383847  0.99975823  0.86690781     0.00300
H653        H  0.19388952  0.39606052  0.81061141     0.14800
H654        H  0.25293223  0.98672028  0.74861872     0.14600
C655        C  0.21605492  0.22215274  0.80017636     0.86400
C656        C  0.20917200  0.19772903  0.83631355    -0.53800
C657        C  0.23724464  0.21251044  0.86231891     0.09300
C658        C  0.27090348  0.25008846  0.84766924     0.20300
C659        C  0.22552168  0.26013177  0.81651486    -0.54500
C660        C  0.25376826  0.27447696  0.84165310     0.09400
C661        C  0.25296537  0.22712925  0.78275768    -0.54100
C662        C  0.28186367  0.24399716  0.80629627     0.10000
H663        H  0.18393379  0.17152731  0.84143878     0.14500
H664        H  0.29514925  0.26209120  0.86631630     0.00300
H665        H  0.21089922  0.27449469  0.80878192     0.14800
H666        H  0.25744851  0.22026201  0.75338829     0.14600
C667        C  0.29098732  0.42536118  0.69078362    -0.06200
C668        C  0.26275961  0.39485230  0.71186246    -0.17300
C669        C  0.25205823  0.39869559  0.75017176     0.11000
C670        C  0.26887081  0.43431606  0.76666807    -0.06100
C671        C  0.30217647  0.46180166  0.74867119    -0.17400
C672        C  0.31187181  0.45858933  0.71049619     0.11000
S673        S  0.22031071  0.35715269  0.77666456    -0.32300
S674        S  0.34726202  0.00025537  0.68790882    -0.32300
H675        H  0.33121491  0.49405014  0.98511986     0.29000
H676        H  0.23611294  0.37110527  0.81266626     0.29000
H677        H  0.24766339  0.36843753  0.69772375     0.19600
H678        H  0.31736728  0.98863521  0.76203461     0.19600
C679        C  0.26546339  0.30956849  0.86230123    -0.06200
C680        C  0.30318424  0.33709974  0.86179649    -0.17300
C681        C  0.31453429  0.37157294  0.87884500     0.11000
C682        C  0.28794791  0.37781907  0.89900824    -0.06100
C683        C  0.25068716  0.34912202  0.90139838    -0.17400
C684        C  0.23928857  0.31561552  0.88327640     0.11000
S685        S  0.36276233  0.40645357  0.87278296    -0.32300
S686        S  0.19135374  0.28069060  0.89086616    -0.32300
H687        H  0.19805404  0.25108414  0.89460791     0.29000
H688        H  0.35660558  0.43662492  0.87414240     0.29000
H689        H  0.32383741  0.33215197  0.84720515     0.19600
H690        H  0.23011934  0.35226069  0.91876621     0.19600
C691        C  0.38559671  0.29510978  0.74023988    -0.06200
C692        C  0.36766703  0.31527316  0.74892394    -0.17300
C693        C  0.33378333  0.29938283  0.77013466     0.11000
C694        C  0.31978147  0.26432539  0.78826652    -0.06100
C695        C  0.33845128  0.24477222  0.78133741    -0.17400
C696        C  0.36940564  0.25854172  0.75555019     0.11000
S697        S  0.30772243  0.32308024  0.76762280    -0.32300
S698        S  0.38136295  0.22505632  0.73813575    -0.32300
H699        H  0.38512837  0.23593743  0.03229005     0.29000
H700        H  0.27822814  0.29410415  0.74856039     0.29000
H701        H  0.37852263  0.34267340  0.73693144     0.19600
H702        H  0.32624395  0.21674350  0.79247825     0.19600
C703        C  0.43454992  0.30745663  0.94612116    -0.06200
C704        C  0.40940133  0.27028285  0.93837206    -0.17300
C705        C  0.41269531  0.25420418  0.90363310     0.11000
C706        C  0.44164094  0.27560582  0.87612743    -0.06100
C707        C  0.46186730  0.31392700  0.88089117    -0.17400
C708        C  0.45923596  0.32999795  0.91598986     0.11000
S709        S  0.38302859  0.20520131  0.89819016    -0.32300
S710        S  0.99050187  0.37830353  0.92361805    -0.32300
H711        H  0.50593022  0.38712556  0.88544742     0.29000
H712        H  0.38904827  0.20574145  0.85764505     0.29000
H713        H  0.38980807  0.25276858  0.96108512     0.19600
H714        H  0.98349577  0.33043326  0.85960234     0.19600
C715        C  0.07460702  0.38207630  0.73105331    -0.06200
C716        C  0.06399501  0.34636174  0.71823353    -0.17300
C717        C  0.04453840  0.31569742  0.74303370     0.11000
C718        C  0.03195120  0.32004297  0.78025655    -0.06100
C719        C  0.04162501  0.35571240  0.79277167    -0.17400
C720        C  0.06333639  0.38682198  0.76884174     0.11000
S721        S  0.54240821  0.27294448  0.72941835    -0.32300
S722        S  0.07821149  0.43171345  0.78933446    -0.32300
H723        H  0.08766838  0.45151431  0.75406091     0.29000
H724        H  0.54817676  0.28043935  0.68922381     0.29000
H725        H  0.07472575  0.34305172  0.69018727     0.19600
H726        H  0.03451686  0.35978464  0.82216510     0.19600
C727        C  0.13654711  0.42692010  0.94302009    -0.06200
C728        C  0.14260881  0.39775262  0.93216892    -0.17300
C729        C  0.15878137  0.39759198  0.89577857     0.11000
C730        C  0.16873679  0.42723689  0.86955801    -0.06100
C731        C  0.15385005  0.45049593  0.87697228    -0.17400
C732        C  0.13936376  0.45178134  0.91390244     0.11000
S733        S  0.16536768  0.35884837  0.88543663    -0.32300
S734        S  0.12991718  0.48870548  0.92257494    -0.32300
H735        H  0.14725812  0.49814359  0.95802898     0.29000
H736        H  0.20249503  0.37915906  0.87253843     0.29000
H737        H  0.13775661  0.37667865  0.95342885     0.19600
H738        H  0.15895049  0.97181585  0.85591561     0.19600
C739        C  0.22361631  0.02395580  0.78981568    -0.06200
C740        C  0.20762943  0.01644983  0.75318675    -0.17300
C741        C  0.20163440  0.04200411  0.73360879     0.11000
C742        C  0.20612202  0.07389936  0.75267046    -0.06100
C743        C  0.21677324  0.07875501  0.79160211    -0.17400
C744        C  0.22753473  0.05560082  0.80950287     0.11000
S745        S  0.19590757  0.03559366  0.68231111    -0.32300
S746        S  0.25087542  0.07158484  0.85447690    -0.32300
H747        H  0.27838986  0.06229341  0.84479611     0.29000
H748        H  0.22654229  0.07036058  0.00564982     0.29000
H749        H  0.20291830  0.49193674  0.73773719     0.19600
H750        H  0.22180681  0.10380577  0.80626367     0.19600
C751        C  0.21811373  0.15865011  0.97633227    -0.06200
C752        C  0.23725291  0.19728716  0.97258543    -0.17300
C753        C  0.24534363  0.21569382  0.93656818     0.11000
C754        C  0.23260332  0.19503748  0.90204176    -0.06100
C755        C  0.21290399  0.15613091  0.90574398    -0.17400
C756        C  0.20617985  0.13783282  0.94200889     0.11000
S757        S  0.27138828  0.26555597  0.93699922    -0.32300
S758        S  0.18570933  0.08835423  0.94297999    -0.32300
H759        H  0.17734555  0.08229609  0.90353383     0.29000
H760        H  0.28144081  0.27016313  0.97598260     0.29000
H761        H  0.24717690  0.21343148  0.99857551     0.19600
H762        H  0.20401025  0.13983139  0.87972881     0.19600
C763        C  0.13602101  0.21057798  0.71601567    -0.06200
C764        C  0.12337722  0.19847879  0.75423162    -0.17300
C765        C  0.14760375  0.19893391  0.78196321     0.11000
C766        C  0.18532831  0.21050013  0.77068497    -0.06100
C767        C  0.19664550  0.22156912  0.73139017    -0.17400
C768        C  0.17269121  0.22144810  0.70448509     0.11000
S769        S  0.13067990  0.18958323  0.83210039    -0.32300
S770        S  0.19231390  0.24284116  0.65771543    -0.32300
H771        H  0.16185704  0.21775107  0.96990350     0.29000
H772        H  0.09325519  0.17819841  0.82588813     0.29000
H773        H  0.09545067  0.19202428  0.76309014     0.19600
H774        H  0.22531316  0.23468309  0.72144689     0.19600
C775        C  0.03157496  0.23029662  0.87950614    -0.06200
C776        C  0.01171435  0.20794574  0.91203815    -0.17300
C777        C  0.03026601  0.20599979  0.94367454     0.11000
C778        C  0.06895880  0.22236944  0.94078760    -0.06100
C779        C  0.08801599  0.23772782  0.90544674    -0.17400
C780        C  0.06966944  0.24109995  0.87415635     0.11000
S781        S  0.00349762  0.18584712  0.65460176    -0.32300
S782        S  0.09593701  0.25657564  0.82848328    -0.32300
H783        H  0.06505632  0.23726089  0.80531996     0.29000
H784        H  0.03014871  0.20817980  0.68100832     0.29000
H785        H  0.98177437  0.19519582  0.91456548     0.19600
H786        H  0.11746881  0.24820728  0.90276067     0.19600
C787        C  0.44834028  0.19900434  0.76916472    -0.06200
C788        C  0.45325413  0.21583027  0.73297925    -0.17300
C789        C  0.43993751  0.19511647  0.69961398     0.11000
C790        C  0.42219742  0.15608752  0.70187072    -0.06100
C791        C  0.41724784  0.13898200  0.73805717    -0.17400
C792        C  0.42885145  0.15993609  0.77181402     0.11000
S793        S  0.44549155  0.22056023  0.98861561    -0.32300
S794        S  0.41415869  0.13513051  0.81747199    -0.32300
H795        H  0.41342105  0.16349416  0.83899527     0.29000
H796        H  0.43924013  0.19240590  0.96238267     0.29000
H797        H  0.96727468  0.24548905  0.73055578     0.19600
H798        H  0.40115021  0.10914465  0.74051724     0.19600
C799        C  0.34554464  0.05673829  0.94178062    -0.06200
C800        C  0.30732158  0.03562568  0.95151801    -0.17300
C801        C  0.28173114  0.01219836  0.92489571     0.11000
C802        C  0.29452722  0.00846632  0.88742794    -0.06100
C803        C  0.33329739  0.02706185  0.87901625    -0.17400
C804        C  0.35875375  0.05136909  0.90538917     0.11000
S805        S  0.23315108  0.98830906  0.93974581    -0.32300
S806        S  0.40721237  0.07568116  0.88982133    -0.32300
H807        H  0.41732152  0.10835005  0.91022815     0.29000
H808        H  0.23749848  0.99753928  0.97925658     0.30500
H809        H  0.29721300  0.04001533  0.97941461     0.19600
H810        H  0.34395064  0.02457456  0.85061457     0.19600
N811        N  0.39537311  0.60261706  0.32068239    -0.03500
C812        C  0.36579441  0.59123365  0.29718296    -0.01000
C813        C  0.35149539  0.61478412  0.29915612    -0.23800
C814        C  0.37149345  0.64111900  0.99162124    -0.24000
C815        C  0.39843158  0.63386173  0.00392939    -0.01100
H816        H  0.32763622  0.61193086  0.28456343     0.12700
H817        H  0.36630254  0.66290632  0.00134300     0.12800
N818        N  0.09496370  0.70422859  0.32833649    -0.03500
C819        C  0.09036659  0.72930028  0.30862042    -0.01000
C820        C  0.10798632  0.76336289  0.32599670    -0.23800
C821        C  0.12397886  0.75914197  0.02474185    -0.24000
C822        C  0.11559076  0.72269604  0.02546472    -0.01100
H823        H  0.10923096  0.78850460  0.31620513     0.12700
H824        H  0.14167970  0.78075153  0.04415143     0.12800
N825        N  0.19506022  0.61206092  0.03480216    -0.03500
C826        C  0.21455233  0.60777018  0.06359611    -0.01000
C827        C  0.25052590  0.63709592  0.06302363    -0.23800
C828        C  0.25443203  0.65919618  0.36573819    -0.24000
C829        C  0.22066437  0.64338221  0.34806824    -0.01100
H830        H  0.27279545  0.64023866  0.08077682     0.12700
H831        H  0.28021302  0.68310859  0.35576071     0.12800
N832        N  0.10035207  0.92136404  0.33819956    -0.03500
C833        C  0.13328429  0.93282586  0.31855352    -0.01000
C834        C  0.15882788  0.93296838  0.34324711    -0.23800
C835        C  0.14091383  0.92042587  0.04538007    -0.24000
C836        C  0.10486952  0.91266069  0.04131893    -0.01100
H837        H  0.18570665  0.93625006  0.33501562     0.12700
H838        H  0.15133306  0.91234713  0.06948295     0.12800
N839        N  0.41840881  0.82587997  0.34384049    -0.03500
C840        C  0.44111937  0.81833182  0.32074494    -0.01000
C841        C  0.46083028  0.80704760  0.34257453    -0.23800
C842        C  0.44663704  0.80300258  0.04647200    -0.24000
C843        C  0.41837261  0.81120352  0.04560400    -0.01100
H844        H  0.48004761  0.79835658  0.33181442     0.12700
H845        H  0.45306438  0.79116651  0.07034427     0.12800
N846        N  0.31227892  0.91612507  0.29016806    -0.03500
C847        C  0.29092091  0.92433026  0.98122046    -0.01000
C848        C  0.26564379  0.92892591  0.96134823    -0.23800
C849        C  0.27110746  0.92306071  0.25657635    -0.24000
C850        C  0.29725875  0.91159114  0.25490626    -0.01100
H851        H  0.24412729  0.93369613  0.97375979     0.12700
H852        H  0.25288973  0.92047888  0.23395401     0.12800
O853        O  0.46077622  0.95124740  0.30017959    -0.88400
C854        C  0.43243743  0.50683953  0.04443469     0.87600
Mg855      Mg  0.50306108  0.93803795  0.31244539     1.58100
O856        O  0.48755430  0.55870353  0.29540472    -0.88100
O857        O  0.44751143  0.97856074  0.25545700    -0.75500
C858        C  0.15519951  0.59084433  0.02930823     0.92700
O859        O  0.46170557  0.94760180  0.05855877    -0.75300
O860        O  0.13708883  0.55656082  0.03808239    -0.82800
Mg861      Mg  0.41820599  0.93531720  0.01199174     1.58000
C862        C  0.07881518  0.66533486  0.32119195     0.92600
O863        O  0.36707787  0.91866482  0.30856430    -0.81100
H864        H  0.49634703  0.57052422  0.23852845    -0.06400
C865        C  0.04915153  0.57375100  0.05932547     0.87500
O866        O  0.04608427  0.98629419  0.27344789    -0.75600
O867        O  0.43113166  0.99265744  0.01246701    -0.88300
O868        O  0.04369119  0.64574798  0.31788425    -0.81100
C869        C  0.41977951  0.58689776  0.99031126     0.92700
C870        C  0.35186996  0.93540829  0.29383527     0.92600
Mg871      Mg  0.08588095  0.59176395  0.31279265     1.58000
O872        O  0.13902256  0.60672963  0.01432296    -0.81100
O873        O  0.04291279  0.58265534  0.26694668    -0.75300
O874        O  0.40940157  0.55512858  0.97621088    -0.81100
O875        O  0.40520027  0.87469821  0.00620693    -0.82900
O876        O  0.09364483  0.97326776  0.34286888    -0.81200
C877        C  0.00816888  0.57062511  0.26591882     0.87000
O878        O  0.07213839  0.53477090  0.31086401    -0.88300
O879        O  0.04311219  0.57708905  0.02533343    -0.88400
O880        O  0.06008953  0.55157170  0.06859280    -0.75500
Mg881      Mg  0.43036299  0.51559321  0.28901393     1.58000
O882        O  0.45198683  0.60543683  0.00445558    -0.82900
H883        H  0.46209659  0.93967975  0.24392604    -0.06600
O884        O  0.01687551  0.97236321  0.02943566    -0.88100
H885        H  0.00922470  0.96334283  0.08686728    -0.06400
H886        H  0.08764883  0.53661657  0.25482870    -0.06600
C887        C  0.49676728  0.96132919  0.05937596     0.87000
C888        C  0.45667558  0.95533859  0.26575700     0.87600
C889        C  0.06971282  0.52007131  0.27894882     0.87600
H890        H  0.04462712  0.58963886  0.08161429    -0.06600
O891        O  0.45573562  0.54047313  0.05075432    -0.75600
Mg892      Mg  0.07502947  0.51306229  0.03396409     1.58000
H893        H  0.41391908  0.98985595  0.06800465    -0.06600
C894        C  0.42890038  0.86433860  0.01042402     0.92600
O895        O  0.04554540  0.92074160  0.32438027    -0.82800
C896        C  0.07905225  0.93938054  0.33372708     0.92600
O897        O  0.37018658  0.96971903  0.28493847    -0.82800
Mg898      Mg  0.99937162  0.59071442  0.01474367     1.58200
O899        O  0.46281368  0.88781078  0.01538053    -0.81100
O900        O  0.09956779  0.65101194  0.32075748    -0.82800
C901        C  0.01107867  0.74313156  0.18743842     0.86400
C902        C  0.48904551  0.71427073  0.15771411    -0.53800
C903        C  0.46793738  0.72273419  0.13558251     0.09300
C904        C  0.47151209  0.76081761  0.14498323     0.20300
C905        C  0.03416696  0.77963065  0.16441178    -0.54500
C906        C  0.01373987  0.78841611  0.14138362     0.09400
C907        C  0.48255160  0.74969272  0.21062682    -0.54100
C908        C  0.46173664  0.75891822  0.18896519     0.10000
H909        H  0.49132023  0.68967629  0.15346331     0.14500
H910        H  0.45450963  0.76810305  0.12723900     0.00300
H911        H  0.06385917  0.79765377  0.16621031     0.14800
H912        H  0.48150485  0.75080944  0.24213528     0.14600
C913        C  0.25185105  0.94882990  0.13090999     0.86400
C914        C  0.27812236  0.46631378  0.16424301    -0.53800
C915        C  0.26893945  0.48595810  0.18952300     0.09300
C916        C  0.23217584  0.48458222  0.17981434     0.20300
C917        C  0.21294939  0.92440458  0.15082714    -0.54500
C918        C  0.20317872  0.94307554  0.17740769     0.09400
C919        C  0.24825655  0.48052182  0.11291027    -0.54100
C920        C  0.23688409  0.49879915  0.13784764     0.10000
H921        H  0.30282866  0.46395499  0.16685772     0.14500
H922        H  0.22383854  0.49975825  0.20024108     0.00300
H923        H  0.19388946  0.89606068  0.14394446     0.14800
H924        H  0.25293217  0.48672022  0.08195195     0.14600
C925        C  0.21605518  0.72215296  0.13350922     0.86400
C926        C  0.20917229  0.69772929  0.16964663    -0.53800
C927        C  0.23724484  0.71251064  0.19565206     0.09300
C928        C  0.27090343  0.75008843  0.18100240     0.20300
C929        C  0.22552184  0.76013199  0.14984798    -0.54500
C930        C  0.25376820  0.77447700  0.17498639     0.09400
C931        C  0.25296547  0.72712923  0.11609044    -0.54100
C932        C  0.28186356  0.74399703  0.13962913     0.10000
H933        H  0.18393482  0.67152866  0.17477197     0.14500
H934        H  0.29514891  0.76209082  0.19964946     0.00300
H935        H  0.21089930  0.77449492  0.14211561     0.14800
H936        H  0.25744904  0.72026192  0.08671960     0.14600
C937        C  0.29098720  0.92536096  0.02411666    -0.06200
C938        C  0.26275944  0.89485206  0.04519551    -0.17300
C939        C  0.25205791  0.89869524  0.08350495     0.11000
C940        C  0.26887037  0.93431556  0.10000131    -0.06100
C941        C  0.30217608  0.96180107  0.08200451    -0.17400
C942        C  0.31187158  0.95858892  0.04382941     0.11000
S943        S  0.22031073  0.85715264  0.10999822    -0.32300
S944        S  0.34726222  0.50025541  0.02124267    -0.32300
H945        H  0.33121453  0.99404989  0.31845258     0.29000
H946        H  0.23611349  0.87110597  0.14599955     0.29000
H947        H  0.24766305  0.86843700  0.03105641     0.19600
H948        H  0.31736671  0.48863481  0.09536792     0.19600
C949        C  0.26546307  0.80956855  0.19563474    -0.06200
C950        C  0.30318393  0.83709981  0.19512999    -0.17300
C951        C  0.31453387  0.87157300  0.21217866     0.11000
C952        C  0.28794734  0.87781911  0.23234185    -0.06100
C953        C  0.25068665  0.84912200  0.23473214    -0.17400
C954        C  0.23928821  0.81561552  0.21661022     0.11000
S955        S  0.36276204  0.90645399  0.20611642    -0.32300
S956        S  0.19135369  0.78069037  0.22419960    -0.32300
H957        H  0.19805367  0.75108369  0.22794135     0.29000
H958        H  0.35660535  0.93662541  0.20747560     0.29000
H959        H  0.32383652  0.83215211  0.18053929     0.19600
H960        H  0.23011774  0.85226068  0.25210116     0.19600
C961        C  0.38559671  0.79510996  0.07357311    -0.06200
C962        C  0.36766707  0.81527333  0.08225713    -0.17300
C963        C  0.33378344  0.79938305  0.10346788     0.11000
C964        C  0.31978145  0.76432537  0.12159983    -0.06100
C965        C  0.33845113  0.74477213  0.11467075    -0.17400
C966        C  0.36940553  0.75854170  0.08888353     0.11000
S967        S  0.30772255  0.82308050  0.10095614    -0.32300
S968        S  0.38136275  0.72505636  0.07146853    -0.32300
H969        H  0.38512840  0.73593706  0.36562344     0.29000
H970        H  0.27822793  0.79410457  0.08189392     0.29000
H971        H  0.37852345  0.84267493  0.07026472     0.19600
H972        H  0.32624369  0.71674303  0.12581221     0.19600
C973        C  0.43455006  0.80745686  0.27945447    -0.06200
C974        C  0.40940147  0.77028308  0.27170528    -0.17300
C975        C  0.41269540  0.75420420  0.23696637     0.11000
C976        C  0.44164072  0.77560570  0.20946072    -0.06100
C977        C  0.46186714  0.81392694  0.21422461    -0.17400
C978        C  0.45923584  0.82999796  0.24932335     0.11000
S979        S  0.38302851  0.70520131  0.23152362    -0.32300
S980        S  0.99050200  0.87830368  0.25695074    -0.32300
H981        H  0.50593033  0.88712608  0.21878148     0.29000
H982        H  0.38904831  0.70574151  0.19097853     0.29000
H983        H  0.38980894  0.75276938  0.29441790     0.19600
H984        H  0.98349385  0.83043191  0.19293733     0.19600
C985        C  0.07460703  0.88207648  0.06438710    -0.06200
C986        C  0.06399494  0.84636202  0.05156712    -0.17300
C987        C  0.04453833  0.81569762  0.07636728     0.11000
C988        C  0.03195094  0.82004288  0.11359016    -0.06100
C989        C  0.04162474  0.85571216  0.12610549    -0.17400
C990        C  0.06333620  0.88682184  0.10217569     0.11000
S991        S  0.54240817  0.77294467  0.06275144    -0.32300
S992        S  0.07821135  0.93171291  0.12266893    -0.32300
H993        H  0.08766798  0.95151379  0.08739544     0.29000
H994        H  0.54817677  0.78044001  0.02255701     0.29000
H995        H  0.07472523  0.84305235  0.02352154     0.19600
H996        H  0.03451644  0.85978418  0.15549976     0.19600
C997        C  0.13654717  0.92692018  0.27635358    -0.06200
C998        C  0.14260883  0.89775264  0.26550239    -0.17300
C999        C  0.15878143  0.89759194  0.22911205     0.11000
C1000       C  0.16873671  0.92723662  0.20289150    -0.06100
C1001       C  0.15384995  0.95049564  0.21030579    -0.17400
C1002       C  0.13936365  0.95178118  0.24723593     0.11000
S1003       S  0.16536784  0.85884848  0.21877007    -0.32300
S1004       S  0.12991688  0.98870533  0.25590760    -0.32300
H1005       H  0.14725777  0.99814367  0.29136169     0.29000
H1006       H  0.20249512  0.87915948  0.20587191     0.29000
H1007       H  0.13775664  0.87667881  0.28676228     0.19600
H1008       H  0.15895012  0.47181485  0.18925000     0.19600
C1009       C  0.22361652  0.52395602  0.12314907    -0.06200
C1010       C  0.20762943  0.51644993  0.08652014    -0.17300
C1011       C  0.20163432  0.54200420  0.06694210     0.11000
C1012       C  0.20612195  0.57389924  0.08600357    -0.06100
C1013       C  0.21677313  0.57875485  0.12493529    -0.17400
C1014       C  0.22753460  0.55560067  0.14283616     0.11000
S1015       S  0.19590705  0.53559309  0.01564455    -0.32300
S1016       S  0.25087481  0.57158510  0.18781038    -0.32300
H1017       H  0.27838938  0.56229375  0.17813009     0.29000
H1018       H  0.22654308  0.57036129  0.33898337     0.29000
H1019       H  0.20291777  0.99193699  0.07107129     0.19600
H1020       H  0.22180608  0.60380424  0.13959636     0.19600
C1021       C  0.21811351  0.65864984  0.30966549    -0.06200
C1022       C  0.23725275  0.69728694  0.30591856    -0.17300
C1023       C  0.24534362  0.71569368  0.26990122     0.11000
C1024       C  0.23260326  0.69503747  0.23537494    -0.06100
C1025       C  0.21290384  0.65613083  0.23907735    -0.17400
C1026       C  0.20617968  0.63783270  0.27534228     0.11000
S1027       S  0.27138845  0.76555594  0.27033263    -0.32300
S1028       S  0.18570923  0.58835419  0.27631342    -0.32300
H1029       H  0.17734535  0.58229585  0.23686731     0.29000
H1030       H  0.28144060  0.77016278  0.30931613     0.29000
H1031       H  0.24717691  0.71343060  0.33190747     0.19600
H1032       H  0.20400998  0.63983124  0.21306246     0.19600
C1033       C  0.13602094  0.71057798  0.04934912    -0.06200
C1034       C  0.12337716  0.69847875  0.08756509    -0.17300
C1035       C  0.14760366  0.69893390  0.11529669     0.11000
C1036       C  0.18532826  0.71050018  0.10401830    -0.06100
C1037       C  0.19664533  0.72156892  0.06472344    -0.17400
C1038       C  0.17269110  0.72144791  0.03781835     0.11000
S1039       S  0.13067988  0.68958330  0.16543387    -0.32300
S1040       S  0.19231379  0.74284106  0.99104863    -0.32300
H1041       H  0.16185736  0.71775133  0.30323641     0.29000
H1042       H  0.09325516  0.67819847  0.15922156     0.29000
H1043       H  0.09545039  0.69202445  0.09642390     0.19600
H1044       H  0.22531324  0.73468292  0.05477995     0.19600
C1045       C  0.03157484  0.73029647  0.21283939    -0.06200
C1046       C  0.01171428  0.70794568  0.24537137    -0.17300
C1047       C  0.03026577  0.70599966  0.27700781     0.11000
C1048       C  0.06895862  0.72236936  0.27412089    -0.06100
C1049       C  0.08801588  0.73772781  0.23878000    -0.17400
C1050       C  0.06966934  0.74110000  0.20748958     0.11000
S1051       S  0.00349727  0.68584675  0.98793482    -0.32300
S1052       S  0.09593656  0.75657541  0.16181619    -0.32300
H1053       H  0.06505558  0.73726049  0.13865326     0.29000
H1054       H  0.03014837  0.70817944  0.01434133     0.29000
H1055       H  0.98177352  0.69519508  0.24789841     0.19600
H1056       H  0.11746851  0.74820731  0.23609399     0.19600
C1057       C  0.44834018  0.69900433  0.10249805    -0.06200
C1058       C  0.45325401  0.71583018  0.06631253    -0.17300
C1059       C  0.43993747  0.69511647  0.03294733     0.11000
C1060       C  0.42219737  0.65608749  0.03520420    -0.06100
C1061       C  0.41724774  0.63898191  0.07139073    -0.17400
C1062       C  0.42885134  0.65993609  0.10514749     0.11000
S1063       S  0.44549154  0.72056031  0.32194890    -0.32300
S1064       S  0.41415862  0.63513051  0.15080542    -0.32300
H1065       H  0.41342100  0.66349420  0.17232864     0.29000
H1066       H  0.43924006  0.69240602  0.29571590     0.29000
H1067       H  0.96727483  0.74548927  0.06388905     0.19600
H1068       H  0.40115027  0.60914485  0.07385104     0.19600
C1069       C  0.34554462  0.55673815  0.27511378    -0.06200
C1070       C  0.30732151  0.53562552  0.28485103    -0.17300
C1071       C  0.28173118  0.51219839  0.25822863     0.11000
C1072       C  0.29452732  0.50846631  0.22076098    -0.06100
C1073       C  0.33329746  0.52706185  0.21234931    -0.17400
C1074       C  0.35875375  0.55136906  0.23872228     0.11000
S1075       S  0.23315114  0.48830912  0.27307899    -0.32300
S1076       S  0.40721236  0.57568086  0.22315470    -0.32300
H1077       H  0.41732171  0.60834997  0.24356117     0.29000
H1078       H  0.23749850  0.49753930  0.31258977     0.30500
H1079       H  0.29721288  0.54001529  0.31274686     0.19600
H1080       H  0.34395072  0.52457501  0.18394707     0.19600
N1081       N  0.39537320  0.60261704  0.65401580    -0.03500
C1082       C  0.36579464  0.59123376  0.63051649    -0.01000
C1083       C  0.35149564  0.61478434  0.63248982    -0.23800
C1084       C  0.37149306  0.64111882  0.32495408    -0.24000
C1085       C  0.39843142  0.63386166  0.33726240    -0.01100
H1086       H  0.32763743  0.61193150  0.61789787     0.12700
H1087       H  0.36630248  0.66290610  0.33467612     0.12800
N1088       N  0.09496383  0.70422871  0.66166978    -0.03500
C1089       C  0.09036677  0.72930047  0.64195367    -0.01000
C1090       C  0.10798639  0.76336297  0.65932997    -0.23800
C1091       C  0.12397886  0.75914195  0.35807516    -0.24000
C1092       C  0.11559075  0.72269600  0.35879811    -0.01100
H1093       H  0.10923101  0.78850487  0.64953834     0.12700
H1094       H  0.14167985  0.78075153  0.37748460     0.12800
N1095       N  0.19506009  0.61206080  0.36813553    -0.03500
C1096       C  0.21455226  0.60777005  0.39692945    -0.01000
C1097       C  0.25052566  0.63709571  0.39635705    -0.23800
C1098       C  0.25443242  0.65919643  0.69907136    -0.24000
C1099       C  0.22066471  0.64338249  0.68140150    -0.01100
H1100       H  0.27279547  0.64023875  0.41411018     0.12700
H1101       H  0.28021443  0.68310988  0.68909356     0.12800
N1102       N  0.10035193  0.92136397  0.67153294    -0.03500
C1103       C  0.13328401  0.93282569  0.65188696    -0.01000
C1104       C  0.15882758  0.93296829  0.67658071    -0.23800
C1105       C  0.14091407  0.92042579  0.37871358    -0.24000
C1106       C  0.10486967  0.91266070  0.37465234    -0.01100
H1107       H  0.18570516  0.93624975  0.66834941     0.12700
H1108       H  0.15133319  0.91234702  0.40281767     0.12800
N1109       N  0.41840883  0.82587994  0.67717391    -0.03500
C1110       C  0.44111932  0.81833175  0.65407832    -0.01000
C1111       C  0.46083027  0.80704757  0.67590791    -0.23800
C1112       C  0.44663691  0.80300282  0.37980518    -0.24000
C1113       C  0.41837246  0.81120363  0.37893724    -0.01100
H1114       H  0.48004734  0.79835630  0.66514773     0.12700
H1115       H  0.45306419  0.79116662  0.40367648     0.12800
N1116       N  0.31227890  0.91612506  0.62350139    -0.03500
C1117       C  0.29092062  0.92433023  0.31455398    -0.01000
C1118       C  0.26564341  0.92892588  0.29468176    -0.23800
C1119       C  0.27110755  0.92306078  0.58990975    -0.24000
C1120       C  0.29725890  0.91159127  0.58823950    -0.01100
H1121       H  0.24412590  0.93369577  0.30709366     0.12700
H1122       H  0.25289003  0.92047930  0.56728730     0.12800
O1123       O  0.46077630  0.95124724  0.63351271    -0.88400
C1124       C  0.43243720  0.50683935  0.37776806     0.87600
Mg1125     Mg  0.50306116  0.93803796  0.64577867     1.58100
O1126       O  0.48755430  0.55870346  0.62873804    -0.88100
O1127       O  0.44751156  0.97856025  0.58878994    -0.75500
C1128       C  0.15519946  0.59084428  0.36264166     0.92700
O1129       O  0.46170560  0.94760184  0.39189196    -0.75300
O1130       O  0.13708877  0.55656077  0.37141580    -0.82800
Mg1131     Mg  0.41820599  0.93531725  0.34532502     1.58000
C1132       C  0.07881532  0.66533509  0.65452531     0.92600
O1133       O  0.36707791  0.91866478  0.64189764    -0.81100
H1134       H  0.49634697  0.57052435  0.57186146    -0.06400
C1135       C  0.04915158  0.57375089  0.39265850     0.87500
O1136       O  0.04608432  0.98629426  0.60678114    -0.75600
O1137       O  0.43113182  0.99265760  0.34580014    -0.88300
O1138       O  0.04369128  0.64574812  0.65121773    -0.81100
C1139       C  0.41977954  0.58689780  0.32364444     0.92700
C1140       C  0.35186988  0.93540814  0.62716863     0.92600
Mg1141     Mg  0.08588102  0.59176402  0.64612595     1.58000
O1142       O  0.13902265  0.60672962  0.34765615    -0.81100
O1143       O  0.04291285  0.58265545  0.60027996    -0.75300
O1144       O  0.40940173  0.55512865  0.30954414    -0.81100
O1145       O  0.40520017  0.87469818  0.33954026    -0.82900
O1146       O  0.09364494  0.97326790  0.67620239    -0.81200
C1147       C  0.00816894  0.57062518  0.59925208     0.87000
O1148       O  0.07213848  0.53477093  0.64419731    -0.88300
O1149       O  0.04311228  0.57708886  0.35866632    -0.88400
O1150       O  0.06008961  0.55157159  0.40192594    -0.75500
Mg1151     Mg  0.43036304  0.51559325  0.62234739     1.58000
O1152       O  0.45198688  0.60543686  0.33778884    -0.82900
H1153       H  0.46209755  0.93967832  0.57725790    -0.06600
O1154       O  0.01687570  0.97236326  0.36276955    -0.88100
H1155       H  0.00922526  0.96334265  0.42020236    -0.06400
H1156       H  0.08764880  0.53661660  0.58816197    -0.06600
C1157       C  0.49676726  0.96132923  0.39270952     0.87000
C1158       C  0.45667572  0.95533846  0.59909041     0.87600
C1159       C  0.06971286  0.52007134  0.61228210     0.87600
H1160       H  0.04462730  0.58963854  0.41494660    -0.06600
O1161       O  0.45573515  0.54047271  0.38408801    -0.75600
Mg1162     Mg  0.07502941  0.51306224  0.36729737     1.58000
H1163       H  0.41391798  0.98985519  0.40133782    -0.06600
C1164       C  0.42890020  0.86433859  0.34375734     0.92600
O1165       O  0.04554559  0.92074170  0.65771348    -0.82800
C1166       C  0.07905238  0.93938067  0.66706054     0.92600
O1167       O  0.37018647  0.96971885  0.61827183    -0.82800
Mg1168     Mg  0.99937165  0.59071441  0.34807694     1.58200
O1169       O  0.46281352  0.88781073  0.34871384    -0.81100
O1170       O  0.09956790  0.65101211  0.65409072    -0.82800
C1171       C  0.01107872  0.74313152  0.52077169     0.86400
C1172       C  0.48904555  0.71427069  0.49104744    -0.53800
C1173       C  0.46793740  0.72273413  0.46891590     0.09300
C1174       C  0.47151214  0.76081762  0.47831661     0.20300
C1175       C  0.03416702  0.77963068  0.49774509    -0.54500
C1176       C  0.01373994  0.78841621  0.47471706     0.09400
C1177       C  0.48255171  0.74969273  0.54396015    -0.54100
C1178       C  0.46173667  0.75891819  0.52229852     0.10000
H1179       H  0.49132026  0.68967610  0.48679649     0.14500
H1180       H  0.45450965  0.76810277  0.46057245     0.00300
H1181       H  0.06385919  0.79765372  0.49954356     0.14800
H1182       H  0.48150508  0.75080952  0.57546805     0.14600
C1183       C  0.25185105  0.94882985  0.46424348     0.86400
C1184       C  0.27812195  0.46631369  0.49757639    -0.53800
C1185       C  0.26893900  0.48595816  0.52285663     0.09300
C1186       C  0.23217559  0.48458232  0.51314807     0.20300
C1187       C  0.21294937  0.92440451  0.48416059    -0.54500
C1188       C  0.20317878  0.94307551  0.51074113     0.09400
C1189       C  0.24825639  0.48052175  0.44624416    -0.54100
C1190       C  0.23688390  0.49879927  0.47118165     0.10000
H1191       H  0.30282693  0.46395494  0.50019061     0.14500
H1192       H  0.22383806  0.49975907  0.53357566     0.00300
H1193       H  0.19388963  0.89606071  0.47727821     0.14800
H1194       H  0.25293168  0.48671956  0.41528768     0.14600
C1195       C  0.21605510  0.72215319  0.46684285     0.86400
C1196       C  0.20917223  0.69772938  0.50298007    -0.53800
C1197       C  0.23724487  0.71251075  0.52898553     0.09300
C1198       C  0.27090347  0.75008852  0.51433592     0.20300
C1199       C  0.22552172  0.76013208  0.48318145    -0.54500
C1200       C  0.25376814  0.77447710  0.50831991     0.09400
C1201       C  0.25296539  0.72712940  0.44942422    -0.54100
C1202       C  0.28186364  0.74399722  0.47296294     0.10000
H1203       H  0.18393517  0.67152897  0.50810522     0.14500
H1204       H  0.29514923  0.76209089  0.53298309     0.00300
H1205       H  0.21089915  0.77449534  0.47544851     0.14800
H1206       H  0.25744847  0.72026228  0.42005529     0.14600
C1207       C  0.29098726  0.92536108  0.35745017    -0.06200
C1208       C  0.26275951  0.89485221  0.37852909    -0.17300
C1209       C  0.25205808  0.89869544  0.41683848     0.11000
C1210       C  0.26887043  0.93431575  0.43333465    -0.06100
C1211       C  0.30217620  0.96180130  0.41533780    -0.17400
C1212       C  0.31187164  0.95858907  0.37716267     0.11000
S1213       S  0.22031062  0.85715261  0.44333134    -0.32300
S1214       S  0.34726182  0.50025520  0.35457549    -0.32300
H1215       H  0.33121488  0.99405015  0.65178589     0.29000
H1216       H  0.23611300  0.87110540  0.47933294     0.29000
H1217       H  0.24766344  0.86843767  0.36439053     0.19600
H1218       H  0.31736588  0.48863312  0.42870072     0.19600
C1219       C  0.26546318  0.80956867  0.52896814    -0.06200
C1220       C  0.30318407  0.83709990  0.52846340    -0.17300
C1221       C  0.31453395  0.87157305  0.54551193     0.11000
C1222       C  0.28794743  0.87781915  0.56567521    -0.06100
C1223       C  0.25068672  0.84912209  0.56806552    -0.17400
C1224       C  0.23928826  0.81561566  0.54994353     0.11000
S1225       S  0.36276208  0.90645398  0.53944967    -0.32300
S1226       S  0.19135375  0.78069047  0.55753288    -0.32300
H1227       H  0.19805379  0.75108384  0.56127474     0.29000
H1228       H  0.35660546  0.93662543  0.54080908     0.29000
H1229       H  0.32383684  0.83215227  0.51387263     0.19600
H1230       H  0.23011776  0.85226097  0.58543442     0.19600
C1231       C  0.38559660  0.79510974  0.40690646    -0.06200
C1232       C  0.36766699  0.81527317  0.41559052    -0.17300
C1233       C  0.33378335  0.79938282  0.43680139     0.11000
C1234       C  0.31978138  0.76432521  0.45493317    -0.06100
C1235       C  0.33845113  0.74477198  0.44800415    -0.17400
C1236       C  0.36940555  0.75854161  0.42221688     0.11000
S1237       S  0.30772237  0.82308025  0.43428950    -0.32300
S1238       S  0.38136282  0.72505639  0.40480181    -0.32300
H1239       H  0.38512831  0.73593761  0.69895662     0.29000
H1240       H  0.27822805  0.79410428  0.41522697     0.29000
H1241       H  0.37852263  0.84267341  0.40359809     0.19600
H1242       H  0.32624377  0.71674299  0.45914553     0.19600
C1243       C  0.43455003  0.80745685  0.61278784    -0.06200
C1244       C  0.40940141  0.77028308  0.60503875    -0.17300
C1245       C  0.41269543  0.75420428  0.57029977     0.11000
C1246       C  0.44164077  0.77560571  0.54279412    -0.06100
C1247       C  0.46186719  0.81392696  0.54755784    -0.17400
C1248       C  0.45923583  0.82999791  0.58265664     0.11000
S1249       S  0.38302860  0.70520145  0.56485692    -0.32300
S1250       S  0.99050207  0.87830364  0.59028390    -0.32300
H1251       H  0.50593020  0.88712552  0.55211410     0.29000
H1252       H  0.38904842  0.70574167  0.52431182     0.29000
H1253       H  0.38980894  0.75276952  0.62775131     0.19600
H1254       H  0.98349570  0.83043297  0.52626876     0.19600
C1255       C  0.07460699  0.88207628  0.39772016    -0.06200
C1256       C  0.06399498  0.84636173  0.38490030    -0.17300
C1257       C  0.04453835  0.81569749  0.40970058     0.11000
C1258       C  0.03195099  0.82004294  0.44692351    -0.06100
C1259       C  0.04162479  0.85571220  0.45943875    -0.17400
C1260       C  0.06333616  0.88682178  0.43550887     0.11000
S1261       S  0.54240808  0.77294438  0.39608574    -0.32300
S1262       S  0.07821130  0.93171313  0.45600176    -0.32300
H1263       H  0.08766820  0.95151427  0.42072840     0.29000
H1264       H  0.54817659  0.78043909  0.35589121     0.29000
H1265       H  0.07472573  0.84305168  0.35685394     0.19600
H1266       H  0.03451639  0.85978437  0.48883339     0.19600
C1267       C  0.13654718  0.92692016  0.60968692    -0.06200
C1268       C  0.14260879  0.89775268  0.59883571    -0.17300
C1269       C  0.15878127  0.89759199  0.56244534     0.11000
C1270       C  0.16873674  0.92723689  0.53622475    -0.06100
C1271       C  0.15385001  0.95049594  0.54363899    -0.17400
C1272       C  0.13936381  0.95178138  0.58056924     0.11000
S1273       S  0.16536760  0.85884836  0.55210339    -0.32300
S1274       S  0.12991740  0.98870561  0.58924183    -0.32300
H1275       H  0.14725820  0.99814394  0.62469595     0.29000
H1276       H  0.20249493  0.87915910  0.53920522     0.29000
H1277       H  0.13775647  0.87667860  0.62009575     0.19600
H1278       H  0.15895026  0.47181555  0.52258208     0.19600
C1279       C  0.22361639  0.52395592  0.45648234    -0.06200
C1280       C  0.20762950  0.51644984  0.41985330    -0.17300
C1281       C  0.20163446  0.54200420  0.40027537     0.11000
C1282       C  0.20612200  0.57389929  0.41933694    -0.06100
C1283       C  0.21677313  0.57875499  0.45826854    -0.17400
C1284       C  0.22753472  0.55560087  0.47616934     0.11000
S1285       S  0.19590764  0.53559375  0.34897768    -0.32300
S1286       S  0.25087548  0.57158512  0.52114333    -0.32300
H1287       H  0.27838976  0.56229340  0.51146287     0.29000
H1288       H  0.22654303  0.57036130  0.67231718     0.29000
H1289       H  0.20291853  0.99193757  0.40440446     0.19600
H1290       H  0.22180655  0.60380536  0.47292958     0.19600
C1291       C  0.21811364  0.65865008  0.64299894    -0.06200
C1292       C  0.23725285  0.69728717  0.63925194    -0.17300
C1293       C  0.24534359  0.71569383  0.60323466     0.11000
C1294       C  0.23260332  0.69503751  0.56870834    -0.06100
C1295       C  0.21290392  0.65613087  0.57241070    -0.17400
C1296       C  0.20617979  0.63783281  0.60867565     0.11000
S1297       S  0.27138831  0.76555603  0.60366591    -0.32300
S1298       S  0.18570925  0.58835420  0.60964663    -0.32300
H1299       H  0.17734529  0.58229560  0.57020053     0.29000
H1300       H  0.28144053  0.77016301  0.64264939     0.29000
H1301       H  0.24717687  0.71343140  0.66524153     0.19600
H1302       H  0.20401008  0.63983132  0.54639594     0.19600
C1303       C  0.13602097  0.71057795  0.38268242    -0.06200
C1304       C  0.12337722  0.69847871  0.42089830    -0.17300
C1305       C  0.14760380  0.69893397  0.44862982     0.11000
C1306       C  0.18532846  0.71050029  0.43735142    -0.06100
C1307       C  0.19664556  0.72156918  0.39805657    -0.17400
C1308       C  0.17269118  0.72144802  0.37115160     0.11000
S1309       S  0.13068013  0.68958346  0.49876709    -0.32300
S1310       S  0.19231350  0.74284082  0.32438172    -0.32300
H1311       H  0.16185779  0.71775170  0.63657002     0.29000
H1312       H  0.09325535  0.67819838  0.49255483     0.29000
H1313       H  0.09545032  0.69202420  0.42975706     0.19600
H1314       H  0.22531373  0.73468326  0.38811291     0.19600
C1315       C  0.03157494  0.73029661  0.54617277    -0.06200
C1316       C  0.01171432  0.70794572  0.57870470    -0.17300
C1317       C  0.03026599  0.70599986  0.61034116     0.11000
C1318       C  0.06895884  0.72236945  0.60745414    -0.06100
C1319       C  0.08801603  0.73772787  0.57211330    -0.17400
C1320       C  0.06966945  0.74109999  0.54082291     0.11000
S1321       S  0.00349683  0.68584641  0.32126784    -0.32300
S1322       S  0.09593660  0.75657535  0.49514953    -0.32300
H1323       H  0.06505559  0.73726053  0.47198663     0.29000
H1324       H  0.03014778  0.70817909  0.34767448     0.29000
H1325       H  0.98177375  0.69519529  0.58123178     0.19600
H1326       H  0.11746921  0.74820786  0.56942735     0.19600
C1327       C  0.44834017  0.69900420  0.43583136    -0.06200
C1328       C  0.45325396  0.71583003  0.39964593    -0.17300
C1329       C  0.43993741  0.69511635  0.36628073     0.11000
C1330       C  0.42219712  0.65608714  0.36853751    -0.06100
C1331       C  0.41724754  0.63898160  0.40472401    -0.17400
C1332       C  0.42885120  0.65993572  0.43848075     0.11000
S1333       S  0.44549146  0.72055986  0.65528192    -0.32300
S1334       S  0.41415862  0.63513046  0.48413877    -0.32300
H1335       H  0.41342104  0.66349422  0.50566187     0.29000
H1336       H  0.43924004  0.69240553  0.62904893     0.29000
H1337       H  0.96727585  0.74549144  0.39722220     0.19600
H1338       H  0.40114910  0.60914280  0.40718442     0.19600
C1339       C  0.34554466  0.55673835  0.60844698    -0.06200
C1340       C  0.30732166  0.53562569  0.61818446    -0.17300
C1341       C  0.28173124  0.51219841  0.59156218     0.11000
C1342       C  0.29452725  0.50846630  0.55409437    -0.06100
C1343       C  0.33329735  0.52706171  0.54568263    -0.17400
C1344       C  0.35875375  0.55136899  0.57205553     0.11000
S1345       S  0.23315118  0.48830918  0.60641257    -0.32300
S1346       S  0.40721231  0.57568090  0.55648800    -0.32300
H1347       H  0.41732159  0.60834990  0.57689465     0.29000
H1348       H  0.23749879  0.49753953  0.64592329     0.30500
H1349       H  0.29721311  0.54001583  0.64608035     0.19600
H1350       H  0.34395060  0.52457449  0.51728013     0.19600
N1351       N  0.39537330  0.60261705  0.98734932    -0.03500
C1352       C  0.36579481  0.59123367  0.96385001    -0.01000
C1353       C  0.35149594  0.61478426  0.96582319    -0.23800
C1354       C  0.37149321  0.64111900  0.65828786    -0.24000
C1355       C  0.39843141  0.63386168  0.67059600    -0.01100
H1356       H  0.32763837  0.61193121  0.95123159     0.12700
H1357       H  0.36630231  0.66290611  0.66801010     0.12800
N1358       N  0.09496358  0.70422851  0.99500323    -0.03500
C1359       C  0.09036666  0.72930035  0.97528706    -0.01000
C1360       C  0.10798638  0.76336292  0.99266339    -0.23800
C1361       C  0.12397895  0.75914212  0.69140840    -0.24000
C1362       C  0.11559089  0.72269621  0.69213142    -0.01100
H1363       H  0.10923109  0.78850477  0.98287182     0.12700
H1364       H  0.14168011  0.78075193  0.71081759     0.12800
N1365       N  0.19506019  0.61206098  0.70146888    -0.03500
C1366       C  0.21455229  0.60777010  0.73026264    -0.01000
C1367       C  0.25052583  0.63709591  0.72969028    -0.23800
C1368       C  0.25443235  0.65919637  0.03240477    -0.24000
C1369       C  0.22066470  0.64338237  0.01473480    -0.01100
H1370       H  0.27279517  0.64023838  0.74744327     0.12700
H1371       H  0.28021442  0.68310986  0.02242690     0.12800
N1372       N  0.10035180  0.92136393  0.00486619    -0.03500
C1373       C  0.13328389  0.93282578  0.98522004    -0.01000
C1374       C  0.15882752  0.93296841  0.00991347    -0.23800
C1375       C  0.14091388  0.92042561  0.71204725    -0.24000
C1376       C  0.10486963  0.91266053  0.70798574    -0.01100
H1377       H  0.18570484  0.93624968  0.00168245     0.12700
H1378       H  0.15133313  0.91234632  0.73615112     0.12800
N1379       N  0.41840899  0.82587990  0.01050722    -0.03500
C1380       C  0.44111959  0.81833162  0.98741167    -0.01000
C1381       C  0.46083049  0.80704732  0.00924138    -0.23800
C1382       C  0.44663698  0.80300276  0.71313858    -0.24000
C1383       C  0.41837253  0.81120362  0.71227068    -0.01100
H1384       H  0.48004829  0.79835581  0.99848079     0.12700
H1385       H  0.45306465  0.79116682  0.73700994     0.12800
N1386       N  0.31227904  0.91612494  0.95683465    -0.03500
C1387       C  0.29092067  0.92433038  0.64788739    -0.01000
C1388       C  0.26564343  0.92892592  0.62801519    -0.23800
C1389       C  0.27110783  0.92306073  0.92324277    -0.24000
C1390       C  0.29725898  0.91159107  0.92157275    -0.01100
H1391       H  0.24412607  0.93369632  0.64042711     0.12700
H1392       H  0.25288988  0.92047893  0.90062057     0.12800
O1393       O  0.46077617  0.95124756  0.96684672    -0.88400
C1394       C  0.43243711  0.50683925  0.71110161     0.87600
Mg1395     Mg  0.50306103  0.93803787  0.97911206     1.58100
O1396       O  0.48755428  0.55870349  0.96207133    -0.88100
O1397       O  0.44751135  0.97856086  0.92212395    -0.75500
C1398       C  0.15519950  0.59084440  0.69597480     0.92700
O1399       O  0.46170566  0.94760186  0.72522536    -0.75300
O1400       O  0.13708877  0.55656085  0.70474912    -0.82800
Mg1401     Mg  0.41820602  0.93531725  0.67865830     1.58000
C1402       C  0.07881503  0.66533488  0.98785864     0.92600
O1403       O  0.36707794  0.91866471  0.97523088    -0.81100
H1404       H  0.49634586  0.57052413  0.90519416    -0.06400
C1405       C  0.04915161  0.57375092  0.72599180     0.87500
O1406       O  0.04608396  0.98629384  0.94011480    -0.75600
O1407       O  0.43113150  0.99265733  0.67913381    -0.88300
O1408       O  0.04369108  0.64574800  0.98455110    -0.81100
C1409       C  0.41977962  0.58689792  0.65697796     0.92700
C1410       C  0.35186997  0.93540822  0.96050206     0.92600
Mg1411     Mg  0.08588078  0.59176390  0.97945943     1.58000
O1412       O  0.13902269  0.60672974  0.68098948    -0.81100
O1413       O  0.04291273  0.58265534  0.93361338    -0.75300
O1414       O  0.40940171  0.55512872  0.64287756    -0.81100
O1415       O  0.40520016  0.87469810  0.67287371    -0.82900
O1416       O  0.09364492  0.97326786  0.00953556    -0.81200
C1417       C  0.00816887  0.57062513  0.93258561     0.87000
O1418       O  0.07213791  0.53477054  0.97753136    -0.88300
O1419       O  0.04311229  0.57708887  0.69199961    -0.88400
O1420       O  0.06008958  0.55157151  0.73525913    -0.75500
Mg1421     Mg  0.43036310  0.51559331  0.95568064     1.58000
O1422       O  0.45198694  0.60543692  0.67112216    -0.82900
H1423       H  0.46209649  0.93968031  0.91059384    -0.06600
O1424       O  0.01687572  0.97236333  0.69610285    -0.88100
H1425       H  0.00922548  0.96334289  0.75353573    -0.06400
H1426       H  0.08764727  0.53661563  0.92149757    -0.06600
C1427       C  0.49676730  0.96132920  0.72604284     0.87000
C1428       C  0.45667557  0.95533869  0.93242401     0.87600
C1429       C  0.06971263  0.52007118  0.94561578     0.87600
H1430       H  0.04462726  0.58963819  0.74827977    -0.06600
O1431       O  0.45573501  0.54047257  0.71742148    -0.75600
Mg1432     Mg  0.07502948  0.51306232  0.70063068     1.58000
H1433       H  0.41391810  0.98985554  0.73467217    -0.06600
C1434       C  0.42890023  0.86433856  0.67709077     0.92600
O1435       O  0.04554549  0.92074160  0.99104688    -0.82800
C1436       C  0.07905228  0.93938058  0.00039393     0.92600
O1437       O  0.37018651  0.96971898  0.95160528    -0.82800
Mg1438     Mg  0.99937172  0.59071446  0.68141028     1.58200
O1439       O  0.46281363  0.88781080  0.68204705    -0.81100
O1440       O  0.09956766  0.65101187  0.98742423    -0.82800
C1441       C  0.01107856  0.74313140  0.85410486     0.86400
C1442       C  0.48904554  0.71427082  0.82438083    -0.53800
C1443       C  0.46793737  0.72273430  0.80224923     0.09300
C1444       C  0.47151213  0.76081772  0.81164981     0.20300
C1445       C  0.03416678  0.77963046  0.83107834    -0.54500
C1446       C  0.01373978  0.78841616  0.80805024     0.09400
C1447       C  0.48255163  0.74969262  0.87729323    -0.54100
C1448       C  0.46173657  0.75891809  0.85563156     0.10000
H1449       H  0.49132047  0.68967761  0.82013004     0.14500
H1450       H  0.45450995  0.76810273  0.79390619     0.00300
H1451       H  0.06385829  0.79765296  0.83287692     0.14800
H1452       H  0.48150491  0.75080916  0.90879994     0.14600
C1453       C  0.25185120  0.94883000  0.79757652     0.86400
C1454       C  0.27812215  0.46631382  0.83090968    -0.53800
C1455       C  0.26893915  0.48595820  0.85618981     0.09300
C1456       C  0.23217574  0.48458226  0.84648103     0.20300
C1457       C  0.21294951  0.92440462  0.81749369    -0.54500
C1458       C  0.20317881  0.94307547  0.84407420     0.09400
C1459       C  0.24825651  0.48052181  0.77957687    -0.54100
C1460       C  0.23688406  0.49879913  0.80451427     0.10000
H1461       H  0.30282713  0.46395521  0.83352400     0.14500
H1462       H  0.22383838  0.49975830  0.86690785     0.00300
H1463       H  0.19388927  0.89606018  0.81061091     0.14800
H1464       H  0.25293222  0.48672023  0.74861870     0.14600
C1465       C  0.21605506  0.72215309  0.80017615     0.86400
C1466       C  0.20917217  0.69772932  0.83631336    -0.53800
C1467       C  0.23724478  0.71251062  0.86231877     0.09300
C1468       C  0.27090343  0.75008851  0.84766916     0.20300
C1469       C  0.22552170  0.76013202  0.81651473    -0.54500
C1470       C  0.25376809  0.77447701  0.84165308     0.09400
C1471       C  0.25296538  0.72712931  0.78275752    -0.54100
C1472       C  0.28186362  0.74399712  0.80629616     0.10000
H1473       H  0.18393475  0.67152853  0.84143848     0.14500
H1474       H  0.29514887  0.76209093  0.86631609     0.00300
H1475       H  0.21089914  0.77449526  0.80878176     0.14800
H1476       H  0.25744849  0.72026209  0.75338812     0.14600
C1477       C  0.29098739  0.92536128  0.69078363    -0.06200
C1478       C  0.26275965  0.89485238  0.71186248    -0.17300
C1479       C  0.25205825  0.89869564  0.75017177     0.11000
C1480       C  0.26887088  0.93431615  0.76666803    -0.06100
C1481       C  0.30217654  0.96180176  0.74867115    -0.17400
C1482       C  0.31187191  0.95858949  0.71049618     0.11000
S1483       S  0.22031085  0.85715279  0.77666479    -0.32300
S1484       S  0.34726187  0.50025518  0.68790873    -0.32300
H1485       H  0.33121482  0.99404999  0.98511988     0.29000
H1486       H  0.23611330  0.87110572  0.81266633     0.29000
H1487       H  0.24766335  0.86843754  0.69772375     0.19600
H1488       H  0.31736711  0.48863488  0.76203455     0.19600
C1489       C  0.26546337  0.80956848  0.86230125    -0.06200
C1490       C  0.30318423  0.83709974  0.86179646    -0.17300
C1491       C  0.31453425  0.87157296  0.87884502     0.11000
C1492       C  0.28794787  0.87781908  0.89900823    -0.06100
C1493       C  0.25068717  0.84912202  0.90139842    -0.17400
C1494       C  0.23928859  0.81561553  0.88327642     0.11000
S1495       S  0.36276219  0.90645395  0.87278294    -0.32300
S1496       S  0.19135380  0.78069050  0.89086619    -0.32300
H1497       H  0.19805373  0.75108378  0.89460800     0.29000
H1498       H  0.35660552  0.93662538  0.87414234     0.29000
H1499       H  0.32383737  0.83215193  0.84720502     0.19600
H1500       H  0.23011932  0.85226076  0.91876628     0.19600
C1501       C  0.38559671  0.79510986  0.74023983    -0.06200
C1502       C  0.36766702  0.81527318  0.74892393    -0.17300
C1503       C  0.33378338  0.79938292  0.77013469     0.11000
C1504       C  0.31978146  0.76432539  0.78826647    -0.06100
C1505       C  0.33845132  0.74477222  0.78133734    -0.17400
C1506       C  0.36940569  0.75854182  0.75555004     0.11000
S1507       S  0.30772285  0.82308073  0.76762307    -0.32300
S1508       S  0.38136294  0.72505659  0.73813483    -0.32300
H1509       H  0.38512849  0.73593711  0.03229017     0.29000
H1510       H  0.27822830  0.79410486  0.74856071     0.29000
H1511       H  0.37852273  0.84267362  0.73693142     0.19600
H1512       H  0.32624411  0.71674369  0.79247807     0.19600
C1513       C  0.43455019  0.80745688  0.94612106    -0.06200
C1514       C  0.40940155  0.77028304  0.93837193    -0.17300
C1515       C  0.41269553  0.75420428  0.90363292     0.11000
C1516       C  0.44164102  0.77560583  0.87612733    -0.06100
C1517       C  0.46186738  0.81392706  0.88089108    -0.17400
C1518       C  0.45923606  0.82999805  0.91598979     0.11000
S1519       S  0.38302863  0.70520133  0.89819010    -0.32300
S1520       S  0.99050189  0.87830355  0.92361793    -0.32300
H1521       H  0.50593021  0.88712558  0.88544744     0.29000
H1522       H  0.38904833  0.70574144  0.85764499     0.29000
H1523       H  0.38980913  0.75276948  0.96108428     0.19600
H1524       H  0.98349577  0.83043322  0.85960226     0.19600
C1525       C  0.07460698  0.88207641  0.73105372    -0.06200
C1526       C  0.06399491  0.84636189  0.71823395    -0.17300
C1527       C  0.04453834  0.81569762  0.74303409     0.11000
C1528       C  0.03195112  0.82004308  0.78025705    -0.06100
C1529       C  0.04162495  0.85571245  0.79277219    -0.17400
C1530       C  0.06333628  0.88682202  0.76884230     0.11000
S1531       S  0.54240804  0.77294458  0.72941831    -0.32300
S1532       S  0.07821149  0.93171352  0.78933456    -0.32300
H1533       H  0.08766828  0.95151429  0.75406096     0.29000
H1534       H  0.54817675  0.78043958  0.68922380     0.29000
H1535       H  0.07472523  0.84305191  0.69018803     0.19600
H1536       H  0.03451659  0.85978485  0.82216745     0.19600
C1537       C  0.13654706  0.92692023  0.94302004    -0.06200
C1538       C  0.14260875  0.89775272  0.93216891    -0.17300
C1539       C  0.15878131  0.89759204  0.89577853     0.11000
C1540       C  0.16873684  0.92723696  0.86955801    -0.06100
C1541       C  0.15385009  0.95049602  0.87697226    -0.17400
C1542       C  0.13936378  0.95178146  0.91390241     0.11000
S1543       S  0.16536766  0.85884843  0.88543668    -0.32300
S1544       S  0.12991720  0.98870557  0.92257493    -0.32300
H1545       H  0.14725813  0.99814365  0.95802897     0.29000
H1546       H  0.20249503  0.87915914  0.87253863     0.29000
H1547       H  0.13775609  0.87667883  0.95342849     0.19600
H1548       H  0.15895044  0.47181577  0.85591560     0.19600
C1549       C  0.22361637  0.52395569  0.78981555    -0.06200
C1550       C  0.20762941  0.51644970  0.75318658    -0.17300
C1551       C  0.20163438  0.54200400  0.73360854     0.11000
C1552       C  0.20612195  0.57389901  0.75267002    -0.06100
C1553       C  0.21677309  0.57875465  0.79160177    -0.17400
C1554       C  0.22753465  0.55560043  0.80950260     0.11000
S1555       S  0.19590754  0.53559363  0.68231097    -0.32300
S1556       S  0.25087544  0.57158489  0.85447666    -0.32300
H1557       H  0.27838986  0.56229336  0.84479611     0.29000
H1558       H  0.22654233  0.57036059  0.00564980     0.29000
H1559       H  0.20291828  0.99193650  0.73773707     0.19600
H1560       H  0.22180600  0.60380354  0.80626229     0.19600
C1561       C  0.21811363  0.65864998  0.97633222    -0.06200
C1562       C  0.23725281  0.69728699  0.97258538    -0.17300
C1563       C  0.24534353  0.71569364  0.93656810     0.11000
C1564       C  0.23260321  0.69503728  0.90204153    -0.06100
C1565       C  0.21290389  0.65613072  0.90574381    -0.17400
C1566       C  0.20617976  0.63783267  0.94200872     0.11000
S1567       S  0.27138826  0.76555589  0.93699926    -0.32300
S1568       S  0.18570929  0.58835416  0.94298003    -0.32300
H1569       H  0.17734540  0.58229580  0.90353391     0.29000
H1570       H  0.28144051  0.77016288  0.97598274     0.29000
H1571       H  0.24717683  0.71343133  0.99857551     0.19600
H1572       H  0.20400976  0.63983058  0.87972790     0.19600
C1573       C  0.13602111  0.71057814  0.71601575    -0.06200
C1574       C  0.12337726  0.69847878  0.75423160    -0.17300
C1575       C  0.14760381  0.69893389  0.78196311     0.11000
C1576       C  0.18532849  0.71050032  0.77068482    -0.06100
C1577       C  0.19664558  0.72156918  0.73139001    -0.17400
C1578       C  0.17269128  0.72144806  0.70448499     0.11000
S1579       S  0.13067996  0.68958328  0.83210032    -0.32300
S1580       S  0.19231389  0.74284123  0.65771534    -0.32300
H1581       H  0.16185763  0.71775153  0.96990338     0.29000
H1582       H  0.09325523  0.67819848  0.82588812     0.29000
H1583       H  0.09545067  0.69202440  0.76309024     0.19600
H1584       H  0.22531386  0.73468343  0.72144643     0.19600
C1585       C  0.03157494  0.73029657  0.87950615    -0.06200
C1586       C  0.01171435  0.70794574  0.91203821    -0.17300
C1587       C  0.03026602  0.70599981  0.94367458     0.11000
C1588       C  0.06895879  0.72236944  0.94078757    -0.06100
C1589       C  0.08801597  0.73772779  0.90544669    -0.17400
C1590       C  0.06966945  0.74109999  0.87415633     0.11000
S1591       S  0.00349761  0.68584714  0.65460168    -0.32300
S1592       S  0.09593704  0.75657567  0.82848323    -0.32300
H1593       H  0.06505639  0.73726098  0.80531983     0.29000
H1594       H  0.03014869  0.70817975  0.68100829     0.29000
H1595       H  0.98177432  0.69519582  0.91456561     0.19600
H1596       H  0.11746888  0.74820739  0.90276061     0.19600
C1597       C  0.44834019  0.69900429  0.76916479    -0.06200
C1598       C  0.45325404  0.71583022  0.73297928    -0.17300
C1599       C  0.43993747  0.69511643  0.69961397     0.11000
C1600       C  0.42219740  0.65608751  0.70187068    -0.06100
C1601       C  0.41724782  0.63898196  0.73805713    -0.17400
C1602       C  0.42885141  0.65993602  0.77181401     0.11000
S1603       S  0.44549154  0.72056026  0.98861548    -0.32300
S1604       S  0.41415870  0.63513004  0.81747169    -0.32300
H1605       H  0.41342095  0.66349341  0.83899540     0.29000
H1606       H  0.43924004  0.69240590  0.96238255     0.29000
H1607       H  0.96727486  0.74548923  0.73055546     0.19600
H1608       H  0.40115037  0.60914489  0.74051715     0.19600
C1609       C  0.34554457  0.55673823  0.94178072    -0.06200
C1610       C  0.30732152  0.53562564  0.95151810    -0.17300
C1611       C  0.28173107  0.51219837  0.92489576     0.11000
C1612       C  0.29452702  0.50846618  0.88742809    -0.06100
C1613       C  0.33329709  0.52706165  0.87901635    -0.17400
C1614       C  0.35875353  0.55136897  0.90538925     0.11000
S1615       S  0.23315114  0.48830906  0.93974582    -0.32300
S1616       S  0.40721221  0.57568093  0.88982136    -0.32300
H1617       H  0.41732161  0.60834993  0.91022809     0.29000
H1618       H  0.23749854  0.49753925  0.97925659     0.30500
H1619       H  0.29721293  0.54001536  0.97941467     0.19600
H1620       H  0.34394992  0.52457449  0.85061507     0.19600
N1621       N  0.89537334  0.10261706  0.32068254    -0.03500
C1622       C  0.86579474  0.09123352  0.29718328    -0.01000
C1623       C  0.85149591  0.11478413  0.29915646    -0.23800
C1624       C  0.87149331  0.14111904  0.99162112    -0.24000
C1625       C  0.89843148  0.13386169  0.00392932    -0.01100
H1626       H  0.82763829  0.11193096  0.28456500     0.12700
H1627       H  0.86630264  0.16290605  0.00134313     0.12800
N1628       N  0.59496355  0.20422845  0.32833648    -0.03500
C1629       C  0.59036656  0.22930028  0.30862032    -0.01000
C1630       C  0.60798622  0.26336279  0.32599651    -0.23800
C1631       C  0.62397911  0.25914213  0.02474199    -0.24000
C1632       C  0.61559097  0.22269623  0.02546488    -0.01100
H1633       H  0.60923097  0.28850465  0.31620517     0.12700
H1634       H  0.64168053  0.28075261  0.04415191     0.12800
N1635       N  0.69506022  0.11206094  0.03480211    -0.03500
C1636       C  0.71455228  0.10777013  0.06359600    -0.01000
C1637       C  0.75052579  0.13709588  0.06302362    -0.23800
C1638       C  0.75443234  0.15919643  0.36573809    -0.24000
C1639       C  0.72066464  0.14338243  0.34806816    -0.01100
H1640       H  0.77279516  0.14023830  0.08077677     0.12700
H1641       H  0.78021415  0.18310981  0.35576038     0.12800
N1642       N  0.60035210  0.42136407  0.33819959    -0.03500
C1643       C  0.63328430  0.43282584  0.31855351    -0.01000
C1644       C  0.65882789  0.43296831  0.34324709    -0.23800
C1645       C  0.64091380  0.42042585  0.04538011    -0.24000
C1646       C  0.60486947  0.41266068  0.04131882    -0.01100
H1647       H  0.68570665  0.43624998  0.33501560     0.12700
H1648       H  0.65133292  0.41234714  0.06948289     0.12800
N1649       N  0.91840905  0.32587994  0.34384056    -0.03500
C1650       C  0.94111959  0.31833162  0.32074503    -0.01000
C1651       C  0.96083051  0.30704728  0.34257460    -0.23800
C1652       C  0.94663714  0.30300272  0.04647180    -0.24000
C1653       C  0.91837261  0.31120361  0.04560404    -0.01100
H1654       H  0.98004865  0.29835608  0.33181399     0.12700
H1655       H  0.95306464  0.29116686  0.07034338     0.12800
N1656       N  0.81227903  0.41612498  0.29016805    -0.03500
C1657       C  0.79092095  0.42433033  0.98122048    -0.01000
C1658       C  0.76564374  0.42892591  0.96134818    -0.23800
C1659       C  0.77110776  0.42306081  0.25657613    -0.24000
C1660       C  0.79725891  0.41159116  0.25490620    -0.01100
H1661       H  0.74412730  0.43369621  0.97375966     0.12700
H1662       H  0.75288978  0.42047889  0.23395402     0.12800
O1663       O  0.96077622  0.45124741  0.30017960    -0.88400
C1664       C  0.93243715  0.00683930  0.04443501     0.87600
Mg1665     Mg  0.00306110  0.43803788  0.31244540     1.58100
O1666       O  0.98755428  0.05870349  0.29540472    -0.88100
O1667       O  0.94751139  0.47856070  0.25545699    -0.75500
C1668       C  0.65519952  0.09084437  0.02930812     0.92700
O1669       O  0.96170558  0.44760177  0.05855885    -0.75300
O1670       O  0.63708878  0.05656084  0.03808243    -0.82800
Mg1671     Mg  0.91820596  0.43531722  0.01199171     1.58000
C1672       C  0.57881505  0.16533491  0.32119197     0.92600
O1673       O  0.86707791  0.41866479  0.30856427    -0.81100
H1674       H  0.99634639  0.07052376  0.23852818    -0.06400
C1675       C  0.54915159  0.07375086  0.05932549     0.87500
O1676       O  0.54608412  0.48629406  0.27344798    -0.75600
O1677       O  0.93113160  0.49265740  0.01246713    -0.88300
O1678       O  0.54369112  0.14574803  0.31788432    -0.81100
C1679       C  0.91977964  0.08689790  0.99031120     0.92700
C1680       C  0.85186998  0.43540825  0.29383530     0.92600
Mg1681     Mg  0.58588084  0.09176391  0.31279272     1.58000
O1682       O  0.63902266  0.10672970  0.01432278    -0.81100
O1683       O  0.54291290  0.08265544  0.26694675    -0.75300
O1684       O  0.90940173  0.05512868  0.97621094    -0.81100
O1685       O  0.90520014  0.37469808  0.00620698    -0.82900
O1686       O  0.59364488  0.47326773  0.34286889    -0.81200
C1687       C  0.50816899  0.07062521  0.26591885     0.87000
O1688       O  0.57213799  0.03477068  0.31086466    -0.88300
O1689       O  0.54311218  0.07708901  0.02533341    -0.88400
O1690       O  0.56008959  0.05157144  0.06859253    -0.75500
Mg1691     Mg  0.93036308  0.01559330  0.28901396     1.58000
O1692       O  0.95198688  0.10543685  0.00445558    -0.82900
H1693       H  0.96209665  0.43967981  0.24392606    -0.06600
O1694       O  0.51687578  0.47236326  0.02943630    -0.88100
H1695       H  0.50922578  0.46334277  0.08686958    -0.06400
H1696       H  0.58764755  0.03661607  0.25483031    -0.06600
C1697       C  0.99676721  0.46132915  0.05937621     0.87000
C1698       C  0.95667559  0.45533860  0.26575701     0.87600
C1699       C  0.56971257  0.02007120  0.27894921     0.87600
H1700       H  0.54462750  0.08963830  0.08161402    -0.06600
O1701       O  0.95573515  0.04047271  0.05075478    -0.75600
Mg1702     Mg  0.57502942  0.01306228  0.03396398     1.58000
H1703       H  0.91391835  0.48985597  0.06800490    -0.06600
C1704       C  0.92890020  0.36433850  0.01042402     0.92600
O1705       O  0.54554537  0.42074156  0.32438024    -0.82800
C1706       C  0.57905223  0.43938052  0.33372706     0.92600
O1707       O  0.87018655  0.46971898  0.28493850    -0.82800
Mg1708     Mg  0.49937165  0.09071451  0.01474370     1.58200
O1709       O  0.96281350  0.38781075  0.01538049    -0.81100
O1710       O  0.59956773  0.15101197  0.32075749    -0.82800
C1711       C  0.51107854  0.24313171  0.18743859     0.86400
C1712       C  0.98904548  0.21427064  0.15771417    -0.53800
C1713       C  0.96793732  0.22273404  0.13558263     0.09300
C1714       C  0.97151195  0.26081746  0.14498328     0.20300
C1715       C  0.53416682  0.27963058  0.16441179    -0.54500
C1716       C  0.51373979  0.28841619  0.14138362     0.09400
C1717       C  0.98255155  0.24969260  0.21062692    -0.54100
C1718       C  0.96173661  0.25891812  0.18896532     0.10000
H1719       H  0.99132026  0.18967619  0.15346332     0.14500
H1720       H  0.95450953  0.26810242  0.12723920     0.00300
H1721       H  0.56385826  0.29765293  0.16621021     0.14800
H1722       H  0.98150493  0.25080943  0.24213544     0.14600
C1723       C  0.75185115  0.44882996  0.13090986     0.86400
C1724       C  0.77812210  0.96631381  0.16424297    -0.53800
C1725       C  0.76893915  0.98595825  0.18952303     0.09300
C1726       C  0.73217571  0.98458234  0.17981439     0.20300
C1727       C  0.71294946  0.42440460  0.15082701    -0.54500
C1728       C  0.70317880  0.44307546  0.17740753     0.09400
C1729       C  0.74825649  0.98052175  0.11291033    -0.54100
C1730       C  0.73688398  0.99879918  0.13784773     0.10000
H1731       H  0.80282708  0.96395505  0.16685752     0.14500
H1732       H  0.72383838  0.99975869  0.20024144     0.00300
H1733       H  0.69388922  0.39606021  0.14394428     0.14800
H1734       H  0.75293183  0.98671966  0.08195247     0.14600
C1735       C  0.71605513  0.22215291  0.13350931     0.86400
C1736       C  0.70917225  0.19772922  0.16964665    -0.53800
C1737       C  0.73724480  0.21251059  0.19565207     0.09300
C1738       C  0.77090341  0.25008843  0.18100246     0.20300
C1739       C  0.72552176  0.26013192  0.14984804    -0.54500
C1740       C  0.75376820  0.27447700  0.17498639     0.09400
C1741       C  0.75296536  0.22712916  0.11609056    -0.54100
C1742       C  0.78186350  0.24399700  0.13962923     0.10000
H1743       H  0.68393478  0.17152854  0.17477199     0.14500
H1744       H  0.79514890  0.26209091  0.19964959     0.00300
H1745       H  0.71089929  0.27449473  0.14211566     0.14800
H1746       H  0.75744874  0.22026182  0.08672003     0.14600
C1747       C  0.79098729  0.42536112  0.02411678    -0.06200
C1748       C  0.76275956  0.39485220  0.04519559    -0.17300
C1749       C  0.75205813  0.39869544  0.08350495     0.11000
C1750       C  0.76887076  0.43431598  0.10000135    -0.06100
C1751       C  0.80217641  0.46180157  0.08200453    -0.17400
C1752       C  0.81187185  0.45858933  0.04382954     0.11000
S1753       S  0.72031074  0.35715267  0.10999795    -0.32300
S1754       S  0.84726217  0.00025535  0.02124288    -0.32300
H1755       H  0.83121470  0.49405002  0.31845256     0.29000
H1756       H  0.73611317  0.37110556  0.14599950     0.29000
H1757       H  0.74766301  0.36843695  0.03105645     0.19600
H1758       H  0.81736645  0.98863329  0.09536757     0.19600
C1759       C  0.76546283  0.30956848  0.19563480    -0.06200
C1760       C  0.80318372  0.33709981  0.19513000    -0.17300
C1761       C  0.81453387  0.37157302  0.21217871     0.11000
C1762       C  0.78794756  0.37781923  0.23234170    -0.06100
C1763       C  0.75068675  0.34912202  0.23473201    -0.17400
C1764       C  0.73928812  0.31561536  0.21661011     0.11000
S1765       S  0.86276230  0.40645319  0.20611639    -0.32300
S1766       S  0.69135364  0.28068995  0.22419976    -0.32300
H1767       H  0.69805417  0.25108361  0.22794136     0.29000
H1768       H  0.85660603  0.43662486  0.20747554     0.29000
H1769       H  0.82383549  0.33215228  0.18053972     0.19600
H1770       H  0.73011857  0.35226067  0.25210068     0.19600
C1771       C  0.88559658  0.29510967  0.07357324    -0.06200
C1772       C  0.86766683  0.31527302  0.08225732    -0.17300
C1773       C  0.83378310  0.29938269  0.10346802     0.11000
C1774       C  0.81978128  0.26432522  0.12159987    -0.06100
C1775       C  0.83845112  0.24477209  0.11467079    -0.17400
C1776       C  0.86940557  0.25854163  0.08888361     0.11000
S1777       S  0.80772213  0.32308015  0.10095599    -0.32300
S1778       S  0.88136293  0.22505652  0.07146832    -0.32300
H1779       H  0.88512837  0.23593722  0.36562333     0.29000
H1780       H  0.77822753  0.29410431  0.08189363     0.29000
H1781       H  0.87852244  0.34267311  0.07026521     0.19600
H1782       H  0.82624370  0.21674289  0.12581220     0.19600
C1783       C  0.93455003  0.30745686  0.27945455    -0.06200
C1784       C  0.90940140  0.27028307  0.27170529    -0.17300
C1785       C  0.91269537  0.25420416  0.23696636     0.11000
C1786       C  0.94164066  0.27560563  0.20946077    -0.06100
C1787       C  0.96186710  0.31392689  0.21422466    -0.17400
C1788       C  0.95923585  0.32999791  0.24932344     0.11000
S1789       S  0.88302853  0.20520127  0.23152353    -0.32300
S1790       S  0.49050170  0.37830350  0.25695132    -0.32300
H1791       H  0.00593021  0.38712562  0.21878080     0.29000
H1792       H  0.88904802  0.20574127  0.19097838     0.29000
H1793       H  0.88980876  0.25276940  0.29441784     0.19600
H1794       H  0.48349480  0.33043280  0.19293585     0.19600
C1795       C  0.57460704  0.38207647  0.06438694    -0.06200
C1796       C  0.56399497  0.34636194  0.05156711    -0.17300
C1797       C  0.54453839  0.31569762  0.07636731     0.11000
C1798       C  0.53195107  0.32004300  0.11359015    -0.06100
C1799       C  0.54162493  0.35571237  0.12610537    -0.17400
C1800       C  0.56333632  0.38682198  0.10217548     0.11000
S1801       S  0.04240812  0.27294468  0.06275145    -0.32300
S1802       S  0.57821136  0.43171318  0.12266848    -0.32300
H1803       H  0.58766824  0.45151422  0.08739506     0.29000
H1804       H  0.04817668  0.28044008  0.02255702     0.29000
H1805       H  0.57472520  0.34305203  0.02352141     0.19600
H1806       H  0.53451696  0.35978460  0.15549967     0.19600
C1807       C  0.63654721  0.42692022  0.27635346    -0.06200
C1808       C  0.64260888  0.39775274  0.26550227    -0.17300
C1809       C  0.65878143  0.39759204  0.22911196     0.11000
C1810       C  0.66873683  0.42723686  0.20289133    -0.06100
C1811       C  0.65385009  0.45049587  0.21030565    -0.17400
C1812       C  0.63936377  0.45178136  0.24723573     0.11000
S1813       S  0.66536749  0.35884829  0.21877016    -0.32300
S1814       S  0.62991689  0.48870534  0.25590765    -0.32300
H1815       H  0.64725775  0.49814360  0.29136176     0.29000
H1816       H  0.70249480  0.37915900  0.20587196     0.29000
H1817       H  0.63775666  0.37667881  0.28676220     0.19600
H1818       H  0.65894973  0.97181430  0.18924954     0.19600
C1819       C  0.72361644  0.02395597  0.12314899    -0.06200
C1820       C  0.70762945  0.01644986  0.08652014    -0.17300
C1821       C  0.70163436  0.04200410  0.06694216     0.11000
C1822       C  0.70612202  0.07389936  0.08600374    -0.06100
C1823       C  0.71677326  0.07875505  0.12493543    -0.17400
C1824       C  0.72753477  0.05560090  0.14283620     0.11000
S1825       S  0.69590708  0.03559307  0.01564459    -0.32300
S1826       S  0.75087551  0.07158497  0.18781018    -0.32300
H1827       H  0.77838990  0.06229349  0.17812936     0.29000
H1828       H  0.72654309  0.07036128  0.33898336     0.29000
H1829       H  0.70291812  0.49193709  0.07107129     0.19600
H1830       H  0.72180684  0.10380581  0.13959698     0.19600
C1831       C  0.71811350  0.15864986  0.30966549    -0.06200
C1832       C  0.73725265  0.19728693  0.30591851    -0.17300
C1833       C  0.74534354  0.21569364  0.26990116     0.11000
C1834       C  0.73260320  0.19503741  0.23537492    -0.06100
C1835       C  0.71290389  0.15613078  0.23907734    -0.17400
C1836       C  0.70617974  0.13783267  0.27534229     0.11000
S1837       S  0.77138826  0.26555591  0.27033262    -0.32300
S1838       S  0.68570928  0.08835415  0.27631344    -0.32300
H1839       H  0.67734539  0.08229581  0.23686733     0.29000
H1840       H  0.78144040  0.27016279  0.30931612     0.29000
H1841       H  0.74717634  0.21343059  0.33190738     0.19600
H1842       H  0.70401012  0.13983118  0.21306243     0.19600
C1843       C  0.63602102  0.21057803  0.04934912    -0.06200
C1844       C  0.62337721  0.19847877  0.08756508    -0.17300
C1845       C  0.64760377  0.19893391  0.11529666     0.11000
C1846       C  0.68532829  0.21050015  0.10401828    -0.06100
C1847       C  0.69664532  0.22156886  0.06472339    -0.17400
C1848       C  0.67269110  0.22144788  0.03781832     0.11000
S1849       S  0.63068021  0.18958356  0.16543393    -0.32300
S1850       S  0.69231382  0.24284101  0.99104862    -0.32300
H1851       H  0.66185690  0.21775093  0.30323634     0.29000
H1852       H  0.59325544  0.17819853  0.15922177     0.29000
H1853       H  0.59545073  0.19202459  0.09642382     0.19600
H1854       H  0.72531313  0.23468286  0.05477990     0.19600
C1855       C  0.53157504  0.23029671  0.21283937    -0.06200
C1856       C  0.51171445  0.20794583  0.24537130    -0.17300
C1857       C  0.53026601  0.20599982  0.27700772     0.11000
C1858       C  0.56895875  0.22236947  0.27412088    -0.06100
C1859       C  0.58801601  0.23772788  0.23878004    -0.17400
C1860       C  0.56966948  0.24110000  0.20748958     0.11000
S1861       S  0.50349725  0.18584670  0.98793481    -0.32300
S1862       S  0.59593701  0.25657566  0.16181649    -0.32300
H1863       H  0.56505618  0.23726086  0.13865334     0.29000
H1864       H  0.53014833  0.20817936  0.01434135     0.29000
H1865       H  0.48177454  0.19519550  0.24789821     0.19600
H1866       H  0.61746871  0.24820722  0.23609405     0.19600
C1867       C  0.94834003  0.19900417  0.10249822    -0.06200
C1868       C  0.95325397  0.21583016  0.06631274    -0.17300
C1869       C  0.93993756  0.19511647  0.03294744     0.11000
C1870       C  0.92219729  0.15608748  0.03520421    -0.06100
C1871       C  0.91724770  0.13898189  0.07139071    -0.17400
C1872       C  0.92885135  0.15993590  0.10514749     0.11000
S1873       S  0.94549154  0.22056024  0.32194892    -0.32300
S1874       S  0.91415863  0.13512978  0.15080506    -0.32300
H1875       H  0.91342076  0.16349314  0.17232866     0.29000
H1876       H  0.93924002  0.19240590  0.29571596     0.29000
H1877       H  0.46727465  0.24548901  0.06388917     0.19600
H1878       H  0.90115029  0.10914470  0.07385095     0.19600
C1879       C  0.84554459  0.05673816  0.27511365    -0.06200
C1880       C  0.80732149  0.03562553  0.28485097    -0.17300
C1881       C  0.78173119  0.01219831  0.25822861     0.11000
C1882       C  0.79452735  0.00846636  0.22076078    -0.06100
C1883       C  0.83329749  0.02706187  0.21234907    -0.17400
C1884       C  0.85875378  0.05136901  0.23872206     0.11000
S1885       S  0.73315112  0.98830908  0.27307901    -0.32300
S1886       S  0.90721242  0.07568102  0.22315469    -0.32300
H1887       H  0.91732160  0.10835000  0.24356135     0.29000
H1888       H  0.73749847  0.99753932  0.31258977     0.30500
H1889       H  0.79721288  0.04001517  0.31274698     0.19600
H1890       H  0.84395111  0.02457452  0.18394627     0.19600
N1891       N  0.89537332  0.10261716  0.65401588    -0.03500
C1892       C  0.86579486  0.09123382  0.63051668    -0.01000
C1893       C  0.85149600  0.11478458  0.63249012    -0.23800
C1894       C  0.87149343  0.14111895  0.32495448    -0.24000
C1895       C  0.89843159  0.13386169  0.33726259    -0.01100
H1896       H  0.82763867  0.11193159  0.61789833     0.12700
H1897       H  0.86630244  0.16290604  0.33467613     0.12800
N1898       N  0.59496367  0.20422859  0.66166979    -0.03500
C1899       C  0.59036671  0.22930040  0.64195357    -0.01000
C1900       C  0.60798631  0.26336290  0.65932977    -0.23800
C1901       C  0.62397870  0.25914178  0.35807495    -0.24000
C1902       C  0.61559064  0.22269586  0.35879795    -0.01100
H1903       H  0.60923108  0.28850495  0.64953836     0.12700
H1904       H  0.64167932  0.28075090  0.37748371     0.12800
N1905       N  0.69506030  0.11206095  0.36813546    -0.03500
C1906       C  0.71455239  0.10777020  0.39692935    -0.01000
C1907       C  0.75052592  0.13709592  0.39635689    -0.23800
C1908       C  0.75443245  0.15919648  0.69907127    -0.24000
C1909       C  0.72066469  0.14338246  0.68140147    -0.01100
H1910       H  0.77279556  0.14023867  0.41411012     0.12700
H1911       H  0.78021423  0.18310969  0.68909343     0.12800
N1912       N  0.60035211  0.42136399  0.67153292    -0.03500
C1913       C  0.63328430  0.43282576  0.65188690    -0.01000
C1914       C  0.65882792  0.43296826  0.67658057    -0.23800
C1915       C  0.64091408  0.42042576  0.37871359    -0.24000
C1916       C  0.60486969  0.41266077  0.37465241    -0.01100
H1917       H  0.68570635  0.43624950  0.66834898     0.12700
H1918       H  0.65133320  0.41234697  0.40281766     0.12800
N1919       N  0.91840893  0.32587993  0.67717378    -0.03500
C1920       C  0.94111953  0.31833160  0.65407818    -0.01000
C1921       C  0.96083044  0.30704737  0.67590777    -0.23800
C1922       C  0.94663712  0.30300253  0.37980516    -0.24000
C1923       C  0.91837268  0.31120358  0.37893728    -0.01100
H1924       H  0.98004852  0.29835565  0.66514743     0.12700
H1925       H  0.95306451  0.29116615  0.40367715     0.12800
N1926       N  0.81227906  0.41612498  0.62350137    -0.03500
C1927       C  0.79092091  0.42433025  0.31455391    -0.01000
C1928       C  0.76564376  0.42892589  0.29468163    -0.23800
C1929       C  0.77110778  0.42306072  0.58990948    -0.24000
C1930       C  0.79725902  0.41159123  0.58823945    -0.01100
H1931       H  0.74412722  0.43369616  0.30709320     0.12700
H1932       H  0.75288997  0.42047920  0.56728732     0.12800
O1933       O  0.96077628  0.45124734  0.63351282    -0.88400
C1934       C  0.93243717  0.00683927  0.37776806     0.87600
Mg1935     Mg  0.00306118  0.43803798  0.64577864     1.58100
O1936       O  0.98755430  0.05870353  0.62873799    -0.88100
O1937       O  0.94751150  0.47856040  0.58879013    -0.75500
C1938       C  0.65519949  0.09084442  0.36264151     0.92700
O1939       O  0.96170570  0.44760189  0.39189220    -0.75300
O1940       O  0.63708886  0.05656091  0.37141561    -0.82800
Mg1941     Mg  0.91820601  0.43531726  0.34532504     1.58000
C1942       C  0.57881508  0.16533490  0.65452548     0.92600
O1943       O  0.86707800  0.41866484  0.64189763    -0.81100
H1944       H  0.99634678  0.07052428  0.57186153    -0.06400
C1945       C  0.54915160  0.07375095  0.39265845     0.87500
O1946       O  0.54608416  0.48629412  0.60678128    -0.75600
O1947       O  0.93113183  0.49265762  0.34580011    -0.88300
O1948       O  0.54369116  0.14574805  0.65121768    -0.81100
C1949       C  0.91977954  0.08689776  0.32364447     0.92700
C1950       C  0.85187000  0.43540820  0.62716863     0.92600
Mg1951     Mg  0.58588090  0.09176398  0.64612600     1.58000
O1952       O  0.63902262  0.10672971  0.34765621    -0.81100
O1953       O  0.54291285  0.08265540  0.60028029    -0.75300
O1954       O  0.90940165  0.05512863  0.30954414    -0.81100
O1955       O  0.90520022  0.37469814  0.33954022    -0.82900
O1956       O  0.59364489  0.47326772  0.67620228    -0.81200
C1957       C  0.50816897  0.07062513  0.59925229     0.87000
O1958       O  0.57213836  0.03477088  0.64419754    -0.88300
O1959       O  0.54311223  0.07708886  0.35866627    -0.88400
O1960       O  0.56008961  0.05157166  0.40192598    -0.75500
Mg1961     Mg  0.93036312  0.01559327  0.62234734     1.58000
O1962       O  0.95198688  0.10543684  0.33778884    -0.82900
H1963       H  0.96209669  0.43967856  0.57725861    -0.06600
O1964       O  0.51687574  0.47236333  0.36276950    -0.88100
H1965       H  0.50922497  0.46334293  0.42020203    -0.06400
H1966       H  0.58764801  0.03661635  0.58816254    -0.06600
C1967       C  0.99676728  0.46132928  0.39270955     0.87000
C1968       C  0.95667565  0.45533847  0.59909041     0.87600
C1969       C  0.56971277  0.02007134  0.61228223     0.87600
H1970       H  0.54462701  0.08963846  0.41494653    -0.06600
O1971       O  0.95573508  0.04047260  0.38408814    -0.75600
Mg1972     Mg  0.57502945  0.01306233  0.36729739     1.58000
H1973       H  0.91391828  0.48985555  0.40133768    -0.06600
C1974       C  0.92890028  0.36433856  0.34375733     0.92600
O1975       O  0.54554545  0.42074152  0.65771338    -0.82800
C1976       C  0.57905224  0.43938045  0.66706043     0.92600
O1977       O  0.87018656  0.46971890  0.61827183    -0.82800
Mg1978     Mg  0.49937162  0.09071443  0.34807697     1.58200
O1979       O  0.96281357  0.38781073  0.34871380    -0.81100
O1980       O  0.59956770  0.15101191  0.65409089    -0.82800
C1981       C  0.51107871  0.24313150  0.52077175     0.86400
C1982       C  0.98904556  0.21427064  0.49104750    -0.53800
C1983       C  0.96793748  0.22273404  0.46891596     0.09300
C1984       C  0.97151218  0.26081759  0.47831672     0.20300
C1985       C  0.53416701  0.27963062  0.49774518    -0.54500
C1986       C  0.51374000  0.28841624  0.47471710     0.09400
C1987       C  0.98255167  0.24969263  0.54396031    -0.54100
C1988       C  0.96173679  0.25891814  0.52229871     0.10000
H1989       H  0.99132046  0.18967598  0.48679644     0.14500
H1990       H  0.95451012  0.26810254  0.46057328     0.00300
H1991       H  0.56385931  0.29765393  0.49954426     0.14800
H1992       H  0.98150511  0.25080949  0.57546839     0.14600
C1993       C  0.75185103  0.44882987  0.46424363     0.86400
C1994       C  0.77812202  0.96631368  0.49757628    -0.53800
C1995       C  0.76893906  0.98595805  0.52285653     0.09300
C1996       C  0.73217563  0.98458226  0.51314800     0.20300
C1997       C  0.71294941  0.42440461  0.48416058    -0.54500
C1998       C  0.70317874  0.44307560  0.51074119     0.09400
C1999       C  0.74825641  0.98052187  0.44624400    -0.54100
C2000       C  0.73688391  0.99879923  0.47118153     0.10000
H2001       H  0.80282700  0.96395493  0.50019049     0.14500
H2002       H  0.72383823  0.99975861  0.53357529     0.00300
H2003       H  0.69388940  0.39606063  0.47727768     0.14800
H2004       H  0.75293185  0.98671997  0.41528733     0.14600
C2005       C  0.71605521  0.22215293  0.46684288     0.86400
C2006       C  0.70917225  0.19772924  0.50298007    -0.53800
C2007       C  0.73724488  0.21251069  0.52898558     0.09300
C2008       C  0.77090356  0.25008849  0.51433599     0.20300
C2009       C  0.72552187  0.26013183  0.48318155    -0.54500
C2010       C  0.75376841  0.27447700  0.50831998     0.09400
C2011       C  0.75296544  0.22712931  0.44942424    -0.54100
C2012       C  0.78186375  0.24399725  0.47296296     0.10000
H2013       H  0.68393518  0.17152888  0.50810524     0.14500
H2014       H  0.79514938  0.26209102  0.53298323     0.00300
H2015       H  0.71090001  0.27449454  0.47544878     0.14800
H2016       H  0.75744853  0.22026228  0.42005527     0.14600
C2017       C  0.79098745  0.42536112  0.35745012    -0.06200
C2018       C  0.76275959  0.39485228  0.37852902    -0.17300
C2019       C  0.75205812  0.39869551  0.41683847     0.11000
C2020       C  0.76887052  0.43431579  0.43333473    -0.06100
C2021       C  0.80217626  0.46180132  0.41533782    -0.17400
C2022       C  0.81187167  0.45858911  0.37716264     0.11000
S2023       S  0.72031085  0.35715273  0.44333158    -0.32300
S2024       S  0.84726194  0.00025521  0.35457557    -0.32300
H2025       H  0.83121502  0.49405042  0.65178594     0.29000
H2026       H  0.73611357  0.37110598  0.47933294     0.29000
H2027       H  0.74766363  0.36843780  0.36439050     0.19600
H2028       H  0.81736625  0.98863318  0.42870081     0.19600
C2029       C  0.76546303  0.30956859  0.52896815    -0.06200
C2030       C  0.80318394  0.33710002  0.52846342    -0.17300
C2031       C  0.81453390  0.37157320  0.54551204     0.11000
C2032       C  0.78794760  0.37781922  0.56567515    -0.06100
C2033       C  0.75068678  0.34912198  0.56806539    -0.17400
C2034       C  0.73928826  0.31561542  0.54994334     0.11000
S2035       S  0.86276223  0.40645365  0.53944968    -0.32300
S2036       S  0.69135376  0.28068999  0.55753299    -0.32300
H2037       H  0.69805401  0.25108347  0.56127470     0.29000
H2038       H  0.85660615  0.43662544  0.54080895     0.29000
H2039       H  0.82383580  0.33215287  0.51387307     0.19600
H2040       H  0.73011864  0.35226048  0.58543387     0.19600
C2041       C  0.88559675  0.29511020  0.40690630    -0.06200
C2042       C  0.86766710  0.31527357  0.41559047    -0.17300
C2043       C  0.83378351  0.29938322  0.43680122     0.11000
C2044       C  0.81978156  0.26432551  0.45493314    -0.06100
C2045       C  0.83845131  0.24477230  0.44800401    -0.17400
C2046       C  0.86940569  0.25854194  0.42221676     0.11000
S2047       S  0.80772230  0.32308028  0.43428956    -0.32300
S2048       S  0.88136274  0.22505638  0.40480163    -0.32300
H2049       H  0.88512830  0.23593723  0.69895741     0.29000
H2050       H  0.77822816  0.29410417  0.41522698     0.29000
H2051       H  0.87852326  0.34267560  0.40359724     0.19600
H2052       H  0.82624400  0.21674348  0.45914496     0.19600
C2053       C  0.93455011  0.30745692  0.61278765    -0.06200
C2054       C  0.90940148  0.27028315  0.60503861    -0.17300
C2055       C  0.91269552  0.25420439  0.57029964     0.11000
C2056       C  0.94164096  0.27560582  0.54279404    -0.06100
C2057       C  0.96186735  0.31392697  0.54755777    -0.17400
C2058       C  0.95923606  0.32999801  0.58265646     0.11000
S2059       S  0.88302870  0.20520153  0.56485689    -0.32300
S2060       S  0.49050207  0.37830368  0.59028380    -0.32300
H2061       H  0.00593025  0.38712573  0.55211410     0.29000
H2062       H  0.88904852  0.20574186  0.52431178     0.29000
H2063       H  0.88980906  0.25276978  0.62775088     0.19600
H2064       H  0.48349474  0.33043236  0.52626967     0.19600
C2065       C  0.57460696  0.38207634  0.39772022    -0.06200
C2066       C  0.56399503  0.34636180  0.38490036    -0.17300
C2067       C  0.54453842  0.31569751  0.40970065     0.11000
C2068       C  0.53195101  0.32004293  0.44692351    -0.06100
C2069       C  0.54162469  0.35571214  0.45943869    -0.17400
C2070       C  0.56333612  0.38682175  0.43550890     0.11000
S2071       S  0.04240806  0.27294445  0.39608572    -0.32300
S2072       S  0.57821123  0.43171294  0.45600208    -0.32300
H2073       H  0.58766840  0.45151408  0.42072872     0.29000
H2074       H  0.04817664  0.28043936  0.35589124     0.29000
H2075       H  0.57472588  0.34305194  0.35685425     0.19600
H2076       H  0.53451614  0.35978424  0.48883315     0.19600
C2077       C  0.63654720  0.42692017  0.60968684    -0.06200
C2078       C  0.64260886  0.39775271  0.59883562    -0.17300
C2079       C  0.65878144  0.39759207  0.56244527     0.11000
C2080       C  0.66873678  0.42723689  0.53622471    -0.06100
C2081       C  0.65385002  0.45049588  0.54363888    -0.17400
C2082       C  0.63936382  0.45178134  0.58056910     0.11000
S2083       S  0.66536816  0.35884865  0.55210328    -0.32300
S2084       S  0.62991711  0.48870541  0.58924116    -0.32300
H2085       H  0.64725781  0.49814388  0.62469535     0.29000
H2086       H  0.70249537  0.37915978  0.53920495     0.29000
H2087       H  0.63775660  0.37667873  0.62009560     0.19600
H2088       H  0.65895033  0.97181545  0.52258207     0.19600
C2089       C  0.72361635  0.02395591  0.45648249    -0.06200
C2090       C  0.70762947  0.01644994  0.41985341    -0.17300
C2091       C  0.70163440  0.04200435  0.40027541     0.11000
C2092       C  0.70612201  0.07389932  0.41933688    -0.06100
C2093       C  0.71677316  0.07875485  0.45826858    -0.17400
C2094       C  0.72753478  0.05560068  0.47616935     0.11000
S2095       S  0.69590767  0.03559371  0.34897767    -0.32300
S2096       S  0.75087550  0.07158497  0.52114332    -0.32300
H2097       H  0.77838977  0.06229328  0.51146262     0.29000
H2098       H  0.72654304  0.07036129  0.67231719     0.29000
H2099       H  0.70291856  0.49193684  0.40440387     0.19600
H2100       H  0.72180624  0.10380429  0.47292954     0.19600
C2101       C  0.71811363  0.15865002  0.64299891    -0.06200
C2102       C  0.73725281  0.19728713  0.63925191    -0.17300
C2103       C  0.74534366  0.21569381  0.60323465     0.11000
C2104       C  0.73260326  0.19503744  0.56870837    -0.06100
C2105       C  0.71290393  0.15613077  0.57241073    -0.17400
C2106       C  0.70617977  0.13783267  0.60867565     0.11000
S2107       S  0.77138833  0.26555601  0.60366592    -0.32300
S2108       S  0.68570924  0.08835404  0.60964664    -0.32300
H2109       H  0.67734530  0.08229551  0.57020053     0.29000
H2110       H  0.78144052  0.27016297  0.64264941     0.29000
H2111       H  0.74717695  0.21343142  0.66524154     0.19600
H2112       H  0.70401012  0.13983113  0.54639585     0.19600
C2113       C  0.63602100  0.21057797  0.38268240    -0.06200
C2114       C  0.62337726  0.19847877  0.42089833    -0.17300
C2115       C  0.64760392  0.19893403  0.44862983     0.11000
C2116       C  0.68532853  0.21050028  0.43735141    -0.06100
C2117       C  0.69664559  0.22156914  0.39805653    -0.17400
C2118       C  0.67269113  0.22144794  0.37115154     0.11000
S2119       S  0.63068021  0.18958343  0.49876708    -0.32300
S2120       S  0.69231317  0.24284047  0.32438147    -0.32300
H2121       H  0.66185716  0.21775105  0.63657013     0.29000
H2122       H  0.59325544  0.17819840  0.49255488     0.29000
H2123       H  0.59545081  0.19202457  0.42975707     0.19600
H2124       H  0.72531363  0.23468313  0.38811286     0.19600
C2125       C  0.53157501  0.23029662  0.54617289    -0.06200
C2126       C  0.51171439  0.20794570  0.57870482    -0.17300
C2127       C  0.53026614  0.20599986  0.61034122     0.11000
C2128       C  0.56895891  0.22236945  0.60745412    -0.06100
C2129       C  0.58801604  0.23772786  0.57211330    -0.17400
C2130       C  0.56966947  0.24109998  0.54082297     0.11000
S2131       S  0.50349695  0.18584649  0.32126769    -0.32300
S2132       S  0.59593654  0.25657531  0.49514956    -0.32300
H2133       H  0.56505531  0.23726033  0.47198701     0.29000
H2134       H  0.53014780  0.20817905  0.34767450     0.29000
H2135       H  0.48177441  0.19519538  0.58123181     0.19600
H2136       H  0.61746946  0.24820794  0.56942720     0.19600
C2137       C  0.94834002  0.19900412  0.43583140    -0.06200
C2138       C  0.95325387  0.21583002  0.39964599    -0.17300
C2139       C  0.93993750  0.19511635  0.36628075     0.11000
C2140       C  0.92219713  0.15608718  0.36853758    -0.06100
C2141       C  0.91724749  0.13898159  0.40472396    -0.17400
C2142       C  0.92885122  0.15993567  0.43848066     0.11000
S2143       S  0.94549147  0.22055983  0.65528194    -0.32300
S2144       S  0.91415870  0.13513027  0.48413851    -0.32300
H2145       H  0.91342094  0.16349385  0.50566182     0.29000
H2146       H  0.93924008  0.19240550  0.62904895     0.29000
H2147       H  0.46727480  0.24548925  0.39722230     0.19600
H2148       H  0.90114955  0.10914288  0.40718425     0.19600
C2149       C  0.84554470  0.05673837  0.60844701    -0.06200
C2150       C  0.80732167  0.03562565  0.61818437    -0.17300
C2151       C  0.78173129  0.01219836  0.59156206     0.11000
C2152       C  0.79452738  0.00846628  0.55409416    -0.06100
C2153       C  0.83329752  0.02706179  0.54568248    -0.17400
C2154       C  0.85875386  0.05136903  0.57205543     0.11000
S2155       S  0.73315125  0.98830924  0.60641274    -0.32300
S2156       S  0.90721244  0.07568109  0.55648794    -0.32300
H2157       H  0.91732141  0.10834994  0.57689475     0.29000
H2158       H  0.73749914  0.99753962  0.64592346     0.30500
H2159       H  0.79721305  0.04001554  0.64608046     0.19600
H2160       H  0.84395117  0.02457443  0.51727945     0.19600
N2161       N  0.89537319  0.10261706  0.98734912    -0.03500
C2162       C  0.86579456  0.09123370  0.96384983    -0.01000
C2163       C  0.85149571  0.11478436  0.96582311    -0.23800
C2164       C  0.87149337  0.14111926  0.65828816    -0.24000
C2165       C  0.89843146  0.13386188  0.67059611    -0.01100
H2166       H  0.82763716  0.11193146  0.95123120     0.12700
H2167       H  0.86630225  0.16290736  0.66801043     0.12800
N2168       N  0.59496367  0.20422858  0.99500334    -0.03500
C2169       C  0.59036671  0.22930024  0.97528723    -0.01000
C2170       C  0.60798652  0.26336289  0.99266360    -0.23800
C2171       C  0.62397877  0.25914186  0.69140823    -0.24000
C2172       C  0.61559067  0.22269592  0.69213131    -0.01100
H2173       H  0.60923122  0.28850410  0.98287198     0.12700
H2174       H  0.64167939  0.28075091  0.71081700     0.12800
N2175       N  0.69506032  0.11206096  0.70146882    -0.03500
C2176       C  0.71455242  0.10777022  0.73026265    -0.01000
C2177       C  0.75052597  0.13709603  0.72969018    -0.23800
C2178       C  0.75443244  0.15919645  0.03240475    -0.24000
C2179       C  0.72066476  0.14338246  0.01473482    -0.01100
H2180       H  0.77279549  0.14023883  0.74744327     0.12700
H2181       H  0.78021447  0.18310994  0.02242702     0.12800
N2182       N  0.60035175  0.42136387  0.00486609    -0.03500
C2183       C  0.63328381  0.43282559  0.98522003    -0.01000
C2184       C  0.65882749  0.43296840  0.00991355    -0.23800
C2185       C  0.64091405  0.42042561  0.71204702    -0.24000
C2186       C  0.60486972  0.41266062  0.70798570    -0.01100
H2187       H  0.68570492  0.43624963  0.00168261     0.12700
H2188       H  0.65133302  0.41234627  0.73615125     0.12800
N2189       N  0.91840891  0.32587985  0.01050725    -0.03500
C2190       C  0.94111939  0.31833146  0.98741164    -0.01000
C2191       C  0.96083051  0.30704744  0.00924117    -0.23800
C2192       C  0.94663693  0.30300266  0.71313840    -0.24000
C2193       C  0.91837246  0.31120364  0.71227051    -0.01100
H2194       H  0.98004826  0.29835590  0.99848069     0.12700
H2195       H  0.95306389  0.29116702  0.73700943     0.12800
N2196       N  0.81227911  0.41612503  0.95683467    -0.03500
C2197       C  0.79092101  0.42433032  0.64788730    -0.01000
C2198       C  0.76564386  0.42892594  0.62801499    -0.23800
C2199       C  0.77110779  0.42306073  0.92324273    -0.24000
C2200       C  0.79725903  0.41159114  0.92157274    -0.01100
H2201       H  0.74412727  0.43369570  0.64042639     0.12700
H2202       H  0.75288978  0.42047889  0.90062044     0.12800
O2203       O  0.96077624  0.45124750  0.96684658    -0.88400
C2204       C  0.93243729  0.00683936  0.71110153     0.87600
Mg2205     Mg  0.00306105  0.43803781  0.97911219     1.58100
O2206       O  0.98755431  0.05870344  0.96207157    -0.88100
O2207       O  0.94751141  0.47856061  0.92212373    -0.75500
C2208       C  0.65519949  0.09084437  0.69597495     0.92700
O2209       O  0.96170572  0.44760189  0.72522557    -0.75300
O2210       O  0.63708883  0.05656082  0.70474907    -0.82800
Mg2211     Mg  0.91820598  0.43531718  0.67865833     1.58000
C2212       C  0.57881523  0.16533493  0.98785871     0.92600
O2213       O  0.86707805  0.41866486  0.97523081    -0.81100
H2214       H  0.99634683  0.07052367  0.90519519    -0.06400
C2215       C  0.54915159  0.07375105  0.72599203     0.87500
O2216       O  0.54608410  0.48629403  0.94011463    -0.75600
O2217       O  0.93113150  0.49265730  0.67913389    -0.88300
O2218       O  0.54369122  0.14574809  0.98455112    -0.81100
C2219       C  0.91977962  0.08689786  0.65697794     0.92700
C2220       C  0.85187006  0.43540832  0.96050199     0.92600
Mg2221     Mg  0.58588080  0.09176385  0.97945931     1.58000
O2222       O  0.63902271  0.10672968  0.68098950    -0.81100
O2223       O  0.54291248  0.08265540  0.93361308    -0.75300
O2224       O  0.90940174  0.05512867  0.64287750    -0.81100
O2225       O  0.90520021  0.37469815  0.67287372    -0.82900
O2226       O  0.59364483  0.47326782  0.00953559    -0.81200
C2227       C  0.50816861  0.07062511  0.93258558     0.87000
O2228       O  0.57213791  0.03477058  0.97753130    -0.88300
O2229       O  0.54311224  0.07708895  0.69199988    -0.88400
O2230       O  0.56008959  0.05157183  0.73525960    -0.75500
Mg2231     Mg  0.93036302  0.01559332  0.95568074     1.58000
O2232       O  0.95198697  0.10543696  0.67112212    -0.82900
H2233       H  0.96209651  0.43967957  0.91059335    -0.06600
O2234       O  0.51687583  0.47236330  0.69610281    -0.88100
H2235       H  0.50922497  0.46334272  0.75353526    -0.06400
H2236       H  0.58764716  0.03661498  0.92149780    -0.06600
C2237       C  0.99676730  0.46132915  0.72604286     0.87000
C2238       C  0.95667562  0.45533854  0.93242393     0.87600
C2239       C  0.56971255  0.02007108  0.94561575     0.87600
H2240       H  0.54462713  0.08963914  0.74828039    -0.06600
O2241       O  0.95573523  0.04047275  0.71742127    -0.75600
Mg2242     Mg  0.57502942  0.01306232  0.70063076     1.58000
H2243       H  0.91391765  0.48985500  0.73467251    -0.06600
C2244       C  0.92890028  0.36433857  0.67709077     0.92600
O2245       O  0.54554554  0.42074161  0.99104676    -0.82800
C2246       C  0.57905225  0.43938057  0.00039378     0.92600
O2247       O  0.87018659  0.46971903  0.95160527    -0.82800
Mg2248     Mg  0.49937165  0.09071445  0.68141034     1.58200
O2249       O  0.96281366  0.38781079  0.68204702    -0.81100
O2250       O  0.59956780  0.15101193  0.98742424    -0.82800
C2251       C  0.51107860  0.24313139  0.85410486     0.86400
C2252       C  0.98904547  0.21427079  0.82438083    -0.53800
C2253       C  0.96793738  0.22273429  0.80224916     0.09300
C2254       C  0.97151202  0.26081771  0.81164966     0.20300
C2255       C  0.53416683  0.27963055  0.83107842    -0.54500
C2256       C  0.51373985  0.28841627  0.80805033     0.09400
C2257       C  0.98255158  0.24969260  0.87729317    -0.54100
C2258       C  0.96173651  0.25891813  0.85563150     0.10000
H2259       H  0.99132051  0.18967725  0.82012997     0.14500
H2260       H  0.95450985  0.26810262  0.79390580     0.00300
H2261       H  0.56385835  0.29765311  0.83287714     0.14800
H2262       H  0.98150502  0.25080922  0.90879998     0.14600
C2263       C  0.75185128  0.44883010  0.79757650     0.86400
C2264       C  0.77812215  0.96631381  0.83090964    -0.53800
C2265       C  0.76893913  0.98595818  0.85618977     0.09300
C2266       C  0.73217573  0.98458227  0.84648098     0.20300
C2267       C  0.71294962  0.42440473  0.81749373    -0.54500
C2268       C  0.70317890  0.44307556  0.84407431     0.09400
C2269       C  0.74825656  0.98052189  0.77957682    -0.54100
C2270       C  0.73688404  0.99879916  0.80451424     0.10000
H2271       H  0.80282712  0.96395515  0.83352400     0.14500
H2272       H  0.72383839  0.99975829  0.86690780     0.00300
H2273       H  0.69389002  0.39606073  0.81061146     0.14800
H2274       H  0.75293216  0.98672026  0.74861864     0.14600
C2275       C  0.71605513  0.22215285  0.80017618     0.86400
C2276       C  0.70917222  0.19772918  0.83631345    -0.53800
C2277       C  0.73724475  0.21251063  0.86231897     0.09300
C2278       C  0.77090343  0.25008847  0.84766922     0.20300
C2279       C  0.72552173  0.26013179  0.81651480    -0.54500
C2280       C  0.75376821  0.27447686  0.84165316     0.09400
C2281       C  0.75296535  0.22712922  0.78275750    -0.54100
C2282       C  0.78186360  0.24399719  0.80629611     0.10000
H2283       H  0.68393485  0.17152839  0.84143860     0.14500
H2284       H  0.79514875  0.26209118  0.86631610     0.00300
H2285       H  0.71089991  0.27449452  0.80878197     0.14800
H2286       H  0.75744836  0.22026189  0.75338817     0.14600
C2287       C  0.79098755  0.42536136  0.69078360    -0.06200
C2288       C  0.76275974  0.39485251  0.71186236    -0.17300
C2289       C  0.75205831  0.39869566  0.75017173     0.11000
C2290       C  0.76887089  0.43431610  0.76666807    -0.06100
C2291       C  0.80217655  0.46180172  0.74867123    -0.17400
C2292       C  0.81187189  0.45858949  0.71049619     0.11000
S2293       S  0.72031077  0.35715267  0.77666453    -0.32300
S2294       S  0.84726205  0.00025536  0.68790882    -0.32300
H2295       H  0.83121484  0.49405018  0.98511991     0.29000
H2296       H  0.73611297  0.37110527  0.81266626     0.29000
H2297       H  0.74766392  0.36843792  0.69772371     0.19600
H2298       H  0.81736736  0.98863516  0.76203464     0.19600
C2299       C  0.76546333  0.30956849  0.86230113    -0.06200
C2300       C  0.80318424  0.33709972  0.86179636    -0.17300
C2301       C  0.81453432  0.37157289  0.87884497     0.11000
C2302       C  0.78794796  0.37781916  0.89900816    -0.06100
C2303       C  0.75068716  0.34912205  0.90139845    -0.17400
C2304       C  0.73928852  0.31561552  0.88327643     0.11000
S2305       S  0.86276245  0.40645320  0.87278293    -0.32300
S2306       S  0.69135367  0.28069052  0.89086619    -0.32300
H2307       H  0.69805407  0.25108413  0.89460794     0.29000
H2308       H  0.85660613  0.43662482  0.87414229     0.29000
H2309       H  0.82383726  0.33215198  0.84720500     0.19600
H2310       H  0.73011938  0.35226076  0.91876637     0.19600
C2311       C  0.88559659  0.29510983  0.74023980    -0.06200
C2312       C  0.86766693  0.31527323  0.74892390    -0.17300
C2313       C  0.83378323  0.29938287  0.77013460     0.11000
C2314       C  0.81978144  0.26432549  0.78826652    -0.06100
C2315       C  0.83845119  0.24477229  0.78133742    -0.17400
C2316       C  0.86940555  0.25854176  0.75555019     0.11000
S2317       S  0.80772203  0.32307997  0.76762260    -0.32300
S2318       S  0.88136281  0.22505631  0.73813565    -0.32300
H2319       H  0.88512841  0.23593744  0.03229005     0.29000
H2320       H  0.77822768  0.29410399  0.74856012     0.29000
H2321       H  0.87852248  0.34267348  0.73693131     0.19600
H2322       H  0.82624368  0.21674357  0.79247812     0.19600
C2323       C  0.93454988  0.30745657  0.94612121    -0.06200
C2324       C  0.90940130  0.27028283  0.93837203    -0.17300
C2325       C  0.91269541  0.25420420  0.90363307     0.11000
C2326       C  0.94164098  0.27560589  0.87612742    -0.06100
C2327       C  0.96186741  0.31392711  0.88089125    -0.17400
C2328       C  0.95923594  0.32999792  0.91599005     0.11000
S2329       S  0.88302866  0.20520134  0.89819002    -0.32300
S2330       S  0.49050203  0.37830368  0.92361731    -0.32300
H2331       H  0.00593020  0.38712584  0.88544826     0.29000
H2332       H  0.88904833  0.20574159  0.85764490     0.29000
H2333       H  0.88980817  0.25276860  0.96108497     0.19600
H2334       H  0.48349574  0.33043323  0.85960193     0.19600
C2335       C  0.57460696  0.38207632  0.73105343    -0.06200
C2336       C  0.56399504  0.34636178  0.71823366    -0.17300
C2337       C  0.54453845  0.31569750  0.74303384     0.11000
C2338       C  0.53195110  0.32004300  0.78025679    -0.06100
C2339       C  0.54162479  0.35571227  0.79277193    -0.17400
C2340       C  0.56333620  0.38682186  0.76884211     0.11000
S2341       S  0.04240816  0.27294445  0.72941831    -0.32300
S2342       S  0.57821137  0.43171315  0.78933503    -0.32300
H2343       H  0.58766828  0.45151422  0.75406163     0.29000
H2344       H  0.04817670  0.28043932  0.68922378     0.29000
H2345       H  0.57472586  0.34305175  0.69018741     0.19600
H2346       H  0.53451619  0.35978442  0.82216657     0.19600
C2347       C  0.63654715  0.42692023  0.94302003    -0.06200
C2348       C  0.64260883  0.39775274  0.93216891    -0.17300
C2349       C  0.65878135  0.39759202  0.89577854     0.11000
C2350       C  0.66873683  0.42723690  0.86955800    -0.06100
C2351       C  0.65385010  0.45049597  0.87697224    -0.17400
C2352       C  0.63936384  0.45178145  0.91390240     0.11000
S2353       S  0.66536770  0.35884840  0.88543668    -0.32300
S2354       S  0.62991723  0.48870553  0.92257490    -0.32300
H2355       H  0.64725820  0.49814370  0.95802893     0.29000
H2356       H  0.70249503  0.37915910  0.87253848     0.29000
H2357       H  0.63775617  0.37667889  0.95342850     0.19600
H2358       H  0.65895053  0.97181584  0.85591558     0.19600
C2359       C  0.72361627  0.02395577  0.78981562    -0.06200
C2360       C  0.70762938  0.01644980  0.75318664    -0.17300
C2361       C  0.70163436  0.04200412  0.73360867     0.11000
C2362       C  0.70612210  0.07389932  0.75267024    -0.06100
C2363       C  0.71677322  0.07875495  0.79160192    -0.17400
C2364       C  0.72753478  0.05560074  0.80950269     0.11000
S2365       S  0.69590757  0.03559363  0.68231100    -0.32300
S2366       S  0.75087564  0.07158485  0.85447666    -0.32300
H2367       H  0.77838990  0.06229324  0.84479557     0.29000
H2368       H  0.72654234  0.07036058  0.00564983     0.29000
H2369       H  0.70291805  0.49193719  0.73773761     0.19600
H2370       H  0.72180677  0.10380513  0.80626289     0.19600
C2371       C  0.71811371  0.15865013  0.97633242    -0.06200
C2372       C  0.73725289  0.19728720  0.97258549    -0.17300
C2373       C  0.74534378  0.21569395  0.93656826     0.11000
C2374       C  0.73260338  0.19503771  0.90204199    -0.06100
C2375       C  0.71290410  0.15613108  0.90574430    -0.17400
C2376       C  0.70617995  0.13783293  0.94200921     0.11000
S2377       S  0.77138838  0.26555603  0.93699939    -0.32300
S2378       S  0.68570939  0.08835426  0.94297998    -0.32300
H2379       H  0.67734565  0.08229616  0.90353381     0.29000
H2380       H  0.78144065  0.27016312  0.97598286     0.29000
H2381       H  0.74717693  0.21343151  0.99857555     0.19600
H2382       H  0.70401098  0.13983213  0.87973010     0.19600
C2383       C  0.63602107  0.21057797  0.71601571    -0.06200
C2384       C  0.62337732  0.19847882  0.75423163    -0.17300
C2385       C  0.64760402  0.19893399  0.78196308     0.11000
C2386       C  0.68532873  0.21050033  0.77068469    -0.06100
C2387       C  0.69664577  0.22156922  0.73138994    -0.17400
C2388       C  0.67269144  0.22144806  0.70448496     0.11000
S2389       S  0.63068082  0.18958370  0.83210053    -0.32300
S2390       S  0.69231354  0.24284070  0.65771502    -0.32300
H2391       H  0.66185766  0.21775149  0.96990338     0.29000
H2392       H  0.59325607  0.17819874  0.82588847     0.29000
H2393       H  0.59545060  0.19202436  0.76309032     0.19600
H2394       H  0.72531512  0.23468399  0.72144605     0.19600
C2395       C  0.53157488  0.23029664  0.87950630    -0.06200
C2396       C  0.51171432  0.20794570  0.91203827    -0.17300
C2397       C  0.53026605  0.20599980  0.94367461     0.11000
C2398       C  0.56895886  0.22236940  0.94078761    -0.06100
C2399       C  0.58801598  0.23772783  0.90544673    -0.17400
C2400       C  0.56966934  0.24109992  0.87415637     0.11000
S2401       S  0.50349768  0.18584715  0.65460174    -0.32300
S2402       S  0.59593655  0.25657537  0.82848299    -0.32300
H2403       H  0.56505561  0.23726042  0.80532004     0.29000
H2404       H  0.53014875  0.20817979  0.68100833     0.29000
H2405       H  0.48177413  0.19519540  0.91456553     0.19600
H2406       H  0.61746905  0.24820734  0.90276056     0.19600
C2407       C  0.94834010  0.19900426  0.76916483    -0.06200
C2408       C  0.95325400  0.21583022  0.73297933    -0.17300
C2409       C  0.93993759  0.19511645  0.69961399     0.11000
C2410       C  0.92219740  0.15608755  0.70187074    -0.06100
C2411       C  0.91724778  0.13898196  0.73805713    -0.17400
C2412       C  0.92885145  0.15993597  0.77181401     0.11000
S2413       S  0.94549158  0.22056024  0.98861563    -0.32300
S2414       S  0.91415873  0.13512979  0.81747154    -0.32300
H2415       H  0.91342082  0.16349305  0.83899531     0.29000
H2416       H  0.93924013  0.19240589  0.96238271     0.29000
H2417       H  0.46727489  0.24548931  0.73055570     0.19600
H2418       H  0.90115076  0.10914489  0.74051707     0.19600
C2419       C  0.84554453  0.05673829  0.94178042    -0.06200
C2420       C  0.80732155  0.03562572  0.95151792    -0.17300
C2421       C  0.78173116  0.01219836  0.92489572     0.11000
C2422       C  0.79452719  0.00846638  0.88742776    -0.06100
C2423       C  0.83329725  0.02706176  0.87901602    -0.17400
C2424       C  0.85875366  0.05136899  0.90538884     0.11000
S2425       S  0.73315116  0.98830921  0.93974577    -0.32300
S2426       S  0.90721232  0.07568091  0.88982128    -0.32300
H2427       H  0.91732169  0.10834988  0.91022803     0.29000
H2428       H  0.73749842  0.99753926  0.97925659     0.30500
H2429       H  0.79721294  0.04001539  0.97941476     0.19600
H2430       H  0.84395056  0.02457461  0.85061325     0.19600
N2431       N  0.89537316  0.60261709  0.32068242    -0.03500
C2432       C  0.86579448  0.59123366  0.29718296    -0.01000
C2433       C  0.85149541  0.61478411  0.29915614    -0.23800
C2434       C  0.87149324  0.64111897  0.99162109    -0.24000
C2435       C  0.89843151  0.63386172  0.00392929    -0.01100
H2436       H  0.82763646  0.61193091  0.28456351     0.12700
H2437       H  0.86630266  0.66290636  0.00134309     0.12800
N2438       N  0.59496368  0.70422864  0.32833650    -0.03500
C2439       C  0.59036669  0.72930041  0.30862030    -0.01000
C2440       C  0.60798636  0.76336300  0.32599651    -0.23800
C2441       C  0.62397891  0.75914185  0.02474195    -0.24000
C2442       C  0.61559077  0.72269597  0.02546473    -0.01100
H2443       H  0.60923111  0.78850509  0.31620438     0.12700
H2444       H  0.64167970  0.78075148  0.04415146     0.12800
N2445       N  0.69506023  0.61206089  0.03480212    -0.03500
C2446       C  0.71455230  0.60777014  0.06359608    -0.01000
C2447       C  0.75052582  0.63709590  0.06302364    -0.23800
C2448       C  0.75443203  0.65919616  0.36573813    -0.24000
C2449       C  0.72066433  0.64338220  0.34806821    -0.01100
H2450       H  0.77279532  0.64023843  0.08077680     0.12700
H2451       H  0.78021295  0.68310847  0.35576059     0.12800
N2452       N  0.60035211  0.92136409  0.33819957    -0.03500
C2453       C  0.63328432  0.93282589  0.31855354    -0.01000
C2454       C  0.65882791  0.93296837  0.34324711    -0.23800
C2455       C  0.64091412  0.92042577  0.04538020    -0.24000
C2456       C  0.60486971  0.91266071  0.04131896    -0.01100
H2457       H  0.68570666  0.93625003  0.33501562     0.12700
H2458       H  0.65133312  0.91234682  0.06948411     0.12800
N2459       N  0.91840903  0.82587994  0.34384062    -0.03500
C2460       C  0.94111959  0.81833168  0.32074506    -0.01000
C2461       C  0.96083054  0.80704734  0.34257457    -0.23800
C2462       C  0.94663708  0.80300267  0.04647184    -0.24000
C2463       C  0.91837256  0.81120357  0.04560397    -0.01100
H2464       H  0.98004868  0.79835614  0.33181395     0.12700
H2465       H  0.95306463  0.79116677  0.07034355     0.12800
N2466       N  0.81227904  0.91612498  0.29016803    -0.03500
C2467       C  0.79092092  0.92433035  0.98122047    -0.01000
C2468       C  0.76564376  0.92892598  0.96134816    -0.23800
C2469       C  0.77110771  0.92306069  0.25657609    -0.24000
C2470       C  0.79725887  0.91159110  0.25490619    -0.01100
H2471       H  0.74412720  0.93369631  0.97375976     0.12700
H2472       H  0.75288976  0.92047885  0.23395401     0.12800
O2473       O  0.96077619  0.95124737  0.30017960    -0.88400
C2474       C  0.93243720  0.50683937  0.04443500     0.87600
Mg2475     Mg  0.00306112  0.93803798  0.31244539     1.58100
O2476       O  0.98755424  0.55870351  0.29540469    -0.88100
O2477       O  0.94751142  0.97856073  0.25545701    -0.75500
C2478       C  0.65519951  0.59084429  0.02930823     0.92700
O2479       O  0.96170536  0.94760178  0.05855856    -0.75300
O2480       O  0.63708885  0.55656079  0.03808239    -0.82800
Mg2481     Mg  0.91820589  0.93531720  0.01199168     1.58000
C2482       C  0.57881501  0.66533485  0.32119206     0.92600
O2483       O  0.86707792  0.91866482  0.30856428    -0.81100
H2484       H  0.99634665  0.57052420  0.23852824    -0.06400
C2485       C  0.54915156  0.57375100  0.05932546     0.87500
O2486       O  0.54608400  0.98629395  0.27344811    -0.75600
O2487       O  0.93113156  0.99265738  0.01246713    -0.88300
O2488       O  0.54369108  0.64574802  0.31788444    -0.81100
C2489       C  0.91977955  0.58689775  0.99031121     0.92700
C2490       C  0.85187000  0.93540828  0.29383529     0.92600
Mg2491     Mg  0.58588090  0.59176393  0.31279267     1.58000
O2492       O  0.63902257  0.60672961  0.01432296    -0.81100
O2493       O  0.54291292  0.58265533  0.26694683    -0.75300
O2494       O  0.90940167  0.55512855  0.97621088    -0.81100
O2495       O  0.90520020  0.87469818  0.00620694    -0.82900
O2496       O  0.59364486  0.97326775  0.34286885    -0.81200
C2497       C  0.50816901  0.57062514  0.26591886     0.87000
O2498       O  0.57213832  0.53477084  0.31086414    -0.88300
O2499       O  0.54311219  0.57708905  0.02533343    -0.88400
O2500       O  0.56008959  0.55157172  0.06859279    -0.75500
Mg2501     Mg  0.93036304  0.51559325  0.28901397     1.58000
O2502       O  0.95198683  0.60543680  0.00445556    -0.82900
H2503       H  0.96209671  0.93967986  0.24392603    -0.06600
O2504       O  0.51687562  0.97236324  0.02943567    -0.88100
H2505       H  0.50922523  0.96334278  0.08686752    -0.06400
H2506       H  0.58764790  0.53661626  0.25482908    -0.06600
C2507       C  0.99676710  0.96132919  0.05937594     0.87000
C2508       C  0.95667561  0.95533862  0.26575701     0.87600
C2509       C  0.56971275  0.52007125  0.27894886     0.87600
H2510       H  0.54462717  0.58963887  0.08161429    -0.06600
O2511       O  0.95573525  0.54047280  0.05075466    -0.75600
Mg2512     Mg  0.57502948  0.51306230  0.03396408     1.58000
H2513       H  0.91391813  0.98985562  0.06800504    -0.06600
C2514       C  0.92890025  0.86433859  0.01042402     0.92600
O2515       O  0.54554536  0.92074155  0.32438024    -0.82800
C2516       C  0.57905223  0.93938052  0.33372706     0.92600
O2517       O  0.87018657  0.96971901  0.28493848    -0.82800
Mg2518     Mg  0.49937171  0.59071452  0.01474367     1.58200
O2519       O  0.96281355  0.88781078  0.01538051    -0.81100
O2520       O  0.59956766  0.65101190  0.32075744    -0.82800
C2521       C  0.51107866  0.74313158  0.18743843     0.86400
C2522       C  0.98904549  0.71427071  0.15771416    -0.53800
C2523       C  0.96793729  0.72273411  0.13558261     0.09300
C2524       C  0.97151204  0.76081755  0.14498326     0.20300
C2525       C  0.53416696  0.77963063  0.16441173    -0.54500
C2526       C  0.51373991  0.78841614  0.14138356     0.09400
C2527       C  0.98255165  0.74969267  0.21062686    -0.54100
C2528       C  0.96173668  0.75891821  0.18896524     0.10000
H2529       H  0.99132027  0.68967625  0.15346331     0.14500
H2530       H  0.95450961  0.76810292  0.12723906     0.00300
H2531       H  0.56385913  0.79765362  0.16621020     0.14800
H2532       H  0.98150502  0.75080942  0.24213506     0.14600
C2533       C  0.75185109  0.94882987  0.13090997     0.86400
C2534       C  0.77812217  0.46631386  0.16424294    -0.53800
C2535       C  0.76893922  0.48595821  0.18952299     0.09300
C2536       C  0.73217575  0.48458226  0.17981433     0.20300
C2537       C  0.71294941  0.92440458  0.15082714    -0.54500
C2538       C  0.70317875  0.94307549  0.17740767     0.09400
C2539       C  0.74825649  0.48052183  0.11291022    -0.54100
C2540       C  0.73688406  0.49879918  0.13784764     0.10000
H2541       H  0.80282713  0.46395511  0.16685758     0.14500
H2542       H  0.72383845  0.49975831  0.20024118     0.00300
H2543       H  0.69388915  0.89606014  0.14394439     0.14800
H2544       H  0.75293223  0.48672026  0.08195215     0.14600
C2545       C  0.71605517  0.72215299  0.13350932     0.86400
C2546       C  0.70917227  0.69772926  0.16964668    -0.53800
C2547       C  0.73724481  0.71251058  0.19565209     0.09300
C2548       C  0.77090341  0.75008845  0.18100249     0.20300
C2549       C  0.72552179  0.76013198  0.14984803    -0.54500
C2550       C  0.75376815  0.77447700  0.17498643     0.09400
C2551       C  0.75296543  0.72712922  0.11609059    -0.54100
C2552       C  0.78186357  0.74399704  0.13962924     0.10000
H2553       H  0.68393480  0.67152859  0.17477198     0.14500
H2554       H  0.79514880  0.76209084  0.19964959     0.00300
H2555       H  0.71089919  0.77449494  0.14211559     0.14800
H2556       H  0.75744881  0.72026194  0.08672010     0.14600
C2557       C  0.79098733  0.92536102  0.02411664    -0.06200
C2558       C  0.76275952  0.89485220  0.04519545    -0.17300
C2559       C  0.75205802  0.89869532  0.08350489     0.11000
C2560       C  0.76887052  0.93431569  0.10000127    -0.06100
C2561       C  0.80217623  0.96180119  0.08200445    -0.17400
C2562       C  0.81187163  0.95858907  0.04382935     0.11000
S2563       S  0.72031081  0.85715269  0.10999819    -0.32300
S2564       S  0.84726226  0.50025540  0.02124265    -0.32300
H2565       H  0.83121489  0.99405035  0.31845261     0.29000
H2566       H  0.73611353  0.87110599  0.14599955     0.29000
H2567       H  0.74766309  0.86843693  0.03105620     0.19600
H2568       H  0.81736708  0.48863491  0.09536797     0.19600
C2569       C  0.76546291  0.80956850  0.19563481    -0.06200
C2570       C  0.80318380  0.83709985  0.19512999    -0.17300
C2571       C  0.81453389  0.87157309  0.21217870     0.11000
C2572       C  0.78794756  0.87781920  0.23234173    -0.06100
C2573       C  0.75068678  0.84912200  0.23473201    -0.17400
C2574       C  0.73928821  0.81561540  0.21661010     0.11000
S2575       S  0.86276219  0.90645364  0.20611639    -0.32300
S2576       S  0.69135370  0.78068999  0.22419973    -0.32300
H2577       H  0.69805405  0.75108351  0.22794128     0.29000
H2578       H  0.85660601  0.93662539  0.20747548     0.29000
H2579       H  0.82383564  0.83215233  0.18053961     0.19600
H2580       H  0.73011864  0.85226050  0.25210067     0.19600
C2581       C  0.88559665  0.79511005  0.07357313    -0.06200
C2582       C  0.86766691  0.81527339  0.08225717    -0.17300
C2583       C  0.83378331  0.79938303  0.10346791     0.11000
C2584       C  0.81978138  0.76432533  0.12159971    -0.06100
C2585       C  0.83845118  0.74477219  0.11467078    -0.17400
C2586       C  0.86940556  0.75854180  0.08888354     0.11000
S2587       S  0.80772214  0.82308017  0.10095602    -0.32300
S2588       S  0.88136281  0.72505643  0.07146854    -0.32300
H2589       H  0.88512841  0.73593737  0.36562332     0.29000
H2590       H  0.77822759  0.79410432  0.08189363     0.29000
H2591       H  0.87852298  0.84267499  0.07026446     0.19600
H2592       H  0.82624381  0.71674317  0.12581217     0.19600
C2593       C  0.93454998  0.80745688  0.27945464    -0.06200
C2594       C  0.90940136  0.77028309  0.27170536    -0.17300
C2595       C  0.91269532  0.75420413  0.23696642     0.11000
C2596       C  0.94164057  0.77560553  0.20946090    -0.06100
C2597       C  0.96186697  0.81392684  0.21422483    -0.17400
C2598       C  0.95923573  0.82999788  0.24932363     0.11000
S2599       S  0.88302851  0.70520129  0.23152364    -0.32300
S2600       S  0.49050177  0.87830358  0.25695118    -0.32300
H2601       H  0.00593055  0.88712590  0.21878101     0.29000
H2602       H  0.88904803  0.70574119  0.19097851     0.29000
H2603       H  0.88980875  0.75276944  0.29441790     0.19600
H2604       H  0.48349481  0.83043277  0.19293583     0.19600
C2605       C  0.57460703  0.88207645  0.06438694    -0.06200
C2606       C  0.56399505  0.84636201  0.05156696    -0.17300
C2607       C  0.54453845  0.81569764  0.07636712     0.11000
C2608       C  0.53195104  0.82004291  0.11359008    -0.06100
C2609       C  0.54162481  0.85571215  0.12610544    -0.17400
C2610       C  0.56333619  0.88682180  0.10217564     0.11000
S2611       S  0.04240813  0.77294469  0.06275144    -0.32300
S2612       S  0.57821119  0.93171290  0.12266887    -0.32300
H2613       H  0.58766828  0.95151403  0.08739551     0.29000
H2614       H  0.04817673  0.78044007  0.02255702     0.29000
H2615       H  0.57472580  0.84305231  0.02352100     0.19600
H2616       H  0.53451646  0.85978418  0.15549991     0.19600
C2617       C  0.63654721  0.92692019  0.27635358    -0.06200
C2618       C  0.64260889  0.89775268  0.26550238    -0.17300
C2619       C  0.65878147  0.89759196  0.22911207     0.11000
C2620       C  0.66873678  0.92723666  0.20289151    -0.06100
C2621       C  0.65385002  0.95049567  0.21030580    -0.17400
C2622       C  0.63936369  0.95178119  0.24723593     0.11000
S2623       S  0.66536751  0.85884827  0.21877017    -0.32300
S2624       S  0.62991692  0.98870533  0.25590761    -0.32300
H2625       H  0.64725774  0.99814363  0.29136174     0.29000
H2626       H  0.70249482  0.87915901  0.20587202     0.29000
H2627       H  0.63775667  0.87667881  0.28676227     0.19600
H2628       H  0.65895038  0.47181567  0.18924885     0.19600
C2629       C  0.72361652  0.52395595  0.12314901    -0.06200
C2630       C  0.70762945  0.51644982  0.08652013    -0.17300
C2631       C  0.70163436  0.54200408  0.06694208     0.11000
C2632       C  0.70612200  0.57389919  0.08600355    -0.06100
C2633       C  0.71677320  0.57875483  0.12493530    -0.17400
C2634       C  0.72753469  0.55560063  0.14283613     0.11000
S2635       S  0.69590710  0.53559308  0.01564455    -0.32300
S2636       S  0.75087535  0.57158497  0.18781019    -0.32300
H2637       H  0.77838992  0.56229360  0.17812987     0.29000
H2638       H  0.72654312  0.57036131  0.33898340     0.29000
H2639       H  0.70291811  0.99193681  0.07107105     0.19600
H2640       H  0.72180617  0.60380425  0.13959638     0.19600
C2641       C  0.71811349  0.65864981  0.30966545    -0.06200
C2642       C  0.73725274  0.69728691  0.30591845    -0.17300
C2643       C  0.74534353  0.71569368  0.26990117     0.11000
C2644       C  0.73260325  0.69503736  0.23537492    -0.06100
C2645       C  0.71290385  0.65613069  0.23907735    -0.17400
C2646       C  0.70617968  0.63783257  0.27534225     0.11000
S2647       S  0.77138832  0.76555600  0.27033264    -0.32300
S2648       S  0.68570918  0.58835402  0.27631332    -0.32300
H2649       H  0.67734526  0.58229549  0.23686722     0.29000
H2650       H  0.78144045  0.77016283  0.30931615     0.29000
H2651       H  0.74717649  0.71343072  0.33190754     0.19600
H2652       H  0.70400991  0.63983097  0.21306241     0.19600
C2653       C  0.63602093  0.71057792  0.04934913    -0.06200
C2654       C  0.62337720  0.69847876  0.08756513    -0.17300
C2655       C  0.64760380  0.69893396  0.11529670     0.11000
C2656       C  0.68532834  0.71050023  0.10401831    -0.06100
C2657       C  0.69664533  0.72156891  0.06472340    -0.17400
C2658       C  0.67269100  0.72144778  0.03781830     0.11000
S2659       S  0.63068024  0.68958361  0.16543395    -0.32300
S2660       S  0.69231339  0.74284053  0.99104832    -0.32300
H2661       H  0.66185741  0.71775132  0.30323643     0.29000
H2662       H  0.59325545  0.67819855  0.15922178     0.29000
H2663       H  0.59545070  0.69202455  0.09642389     0.19600
H2664       H  0.72531311  0.73468286  0.05477987     0.19600
C2665       C  0.53157517  0.73029670  0.21283933    -0.06200
C2666       C  0.51171459  0.70794590  0.24537139    -0.17300
C2667       C  0.53026617  0.70599987  0.27700786     0.11000
C2668       C  0.56895883  0.72236943  0.27412087    -0.06100
C2669       C  0.58801601  0.73772785  0.23877994    -0.17400
C2670       C  0.56966951  0.74110004  0.20748948     0.11000
S2671       S  0.50349727  0.68584674  0.98793479    -0.32300
S2672       S  0.59593669  0.75657530  0.16181614    -0.32300
H2673       H  0.56505568  0.73726052  0.13865322     0.29000
H2674       H  0.53014833  0.70817939  0.01434136     0.29000
H2675       H  0.48177528  0.69519610  0.24789841     0.19600
H2676       H  0.61746876  0.74820731  0.23609388     0.19600
C2677       C  0.94834008  0.69900425  0.10249815    -0.06200
C2678       C  0.95325403  0.71583016  0.06631264    -0.17300
C2679       C  0.93993751  0.69511649  0.03294738     0.11000
C2680       C  0.92219735  0.65608750  0.03520417    -0.06100
C2681       C  0.91724771  0.63898190  0.07139073    -0.17400
C2682       C  0.92885139  0.65993601  0.10514750     0.11000
S2683       S  0.94549156  0.72056032  0.32194888    -0.32300
S2684       S  0.91415864  0.63513027  0.15080531    -0.32300
H2685       H  0.91342091  0.66349389  0.17232855     0.29000
H2686       H  0.93923997  0.69240592  0.29571597     0.29000
H2687       H  0.46727491  0.74548941  0.06388872     0.19600
H2688       H  0.90115032  0.60914486  0.07385099     0.19600
C2689       C  0.84554463  0.55673814  0.27511372    -0.06200
C2690       C  0.80732153  0.53562550  0.28485097    -0.17300
C2691       C  0.78173125  0.51219837  0.25822856     0.11000
C2692       C  0.79452741  0.50846631  0.22076081    -0.06100
C2693       C  0.83329759  0.52706185  0.21234914    -0.17400
C2694       C  0.85875380  0.55136904  0.23872215     0.11000
S2695       S  0.73315119  0.48830910  0.27307899    -0.32300
S2696       S  0.90721242  0.57568088  0.22315474    -0.32300
H2697       H  0.91732168  0.60834994  0.24356128     0.29000
H2698       H  0.73749854  0.49753930  0.31258977     0.30500
H2699       H  0.79721285  0.54001524  0.31274688     0.19600
H2700       H  0.84395119  0.52457489  0.18394648     0.19600
N2701       N  0.89537331  0.60261716  0.65401590    -0.03500
C2702       C  0.86579489  0.59123387  0.63051669    -0.01000
C2703       C  0.85149603  0.61478461  0.63249010    -0.23800
C2704       C  0.87149307  0.64111884  0.32495407    -0.24000
C2705       C  0.89843142  0.63386171  0.33726244    -0.01100
H2706       H  0.82763871  0.61193165  0.61789834     0.12700
H2707       H  0.86630246  0.66290618  0.33467601     0.12800
N2708       N  0.59496371  0.70422869  0.66166988    -0.03500
C2709       C  0.59036670  0.72930047  0.64195373    -0.01000
C2710       C  0.60798645  0.76336301  0.65933000    -0.23800
C2711       C  0.62397892  0.75914211  0.35807496    -0.24000
C2712       C  0.61559077  0.72269610  0.35879801    -0.01100
H2713       H  0.60923109  0.78850492  0.64953844     0.12700
H2714       H  0.64168002  0.78075176  0.37748459     0.12800
N2715       N  0.69506014  0.61206077  0.36813549    -0.03500
C2716       C  0.71455222  0.60777003  0.39692945    -0.01000
C2717       C  0.75052567  0.63709569  0.39635702    -0.23800
C2718       C  0.75443246  0.65919645  0.69907131    -0.24000
C2719       C  0.72066472  0.64338249  0.68140150    -0.01100
H2720       H  0.77279547  0.64023872  0.41411006     0.12700
H2721       H  0.78021448  0.68310986  0.68909347     0.12800
N2722       N  0.60035213  0.92136407  0.67153295    -0.03500
C2723       C  0.63328431  0.93282578  0.65188690    -0.01000
C2724       C  0.65882792  0.93296830  0.67658060    -0.23800
C2725       C  0.64091409  0.92042578  0.37871358    -0.24000
C2726       C  0.60486970  0.91266074  0.37465234    -0.01100
H2727       H  0.68570635  0.93624954  0.66834902     0.12700
H2728       H  0.65133320  0.91234699  0.40281766     0.12800
N2729       N  0.91840898  0.82587985  0.67717390    -0.03500
C2730       C  0.94111957  0.81833159  0.65407823    -0.01000
C2731       C  0.96083052  0.80704736  0.67590780    -0.23800
C2732       C  0.94663720  0.80300262  0.37980512    -0.24000
C2733       C  0.91837268  0.81120355  0.37893733    -0.01100
H2734       H  0.98004849  0.79835585  0.66514718     0.12700
H2735       H  0.95306469  0.79116624  0.40367725     0.12800
N2736       N  0.81227903  0.91612502  0.62350137    -0.03500
C2737       C  0.79092092  0.92433020  0.31455390    -0.01000
C2738       C  0.76564377  0.92892586  0.29468160    -0.23800
C2739       C  0.77110776  0.92306075  0.58990949    -0.24000
C2740       C  0.79725902  0.91159125  0.58823942    -0.01100
H2741       H  0.74412715  0.93369562  0.30709306     0.12700
H2742       H  0.75288994  0.92047915  0.56728728     0.12800
O2743       O  0.96077625  0.95124733  0.63351282    -0.88400
C2744       C  0.93243724  0.50683936  0.37776807     0.87600
Mg2745     Mg  0.00306117  0.93803799  0.64577866     1.58100
O2746       O  0.98755429  0.55870351  0.62873794    -0.88100
O2747       O  0.94751150  0.97856041  0.58879013    -0.75500
C2748       C  0.65519941  0.59084427  0.36264155     0.92700
O2749       O  0.96170568  0.94760188  0.39189217    -0.75300
O2750       O  0.63708878  0.55656076  0.37141570    -0.82800
Mg2751     Mg  0.91820600  0.93531728  0.34532508     1.58000
C2752       C  0.57881515  0.66533507  0.65452548     0.92600
O2753       O  0.86707794  0.91866476  0.64189763    -0.81100
H2754       H  0.99634673  0.57052436  0.57186148    -0.06400
C2755       C  0.54915156  0.57375086  0.39265847     0.87500
O2756       O  0.54608419  0.98629414  0.60678126    -0.75600
O2757       O  0.93113183  0.99265760  0.34580011    -0.88300
O2758       O  0.54369121  0.64574813  0.65121773    -0.81100
C2759       C  0.91977949  0.58689780  0.32364446     0.92700
C2760       C  0.85186994  0.93540813  0.62716864     0.92600
Mg2761     Mg  0.58588093  0.59176398  0.64612598     1.58000
O2762       O  0.63902262  0.60672967  0.34765620    -0.81100
O2763       O  0.54291290  0.58265544  0.60028027    -0.75300
O2764       O  0.90940166  0.55512864  0.30954414    -0.81100
O2765       O  0.90520019  0.87469816  0.33954036    -0.82900
O2766       O  0.59364495  0.97326787  0.67620231    -0.81200
C2767       C  0.50816902  0.57062517  0.59925228     0.87000
O2768       O  0.57213841  0.53477088  0.64419748    -0.88300
O2769       O  0.54311223  0.57708879  0.35866632    -0.88400
O2770       O  0.56008961  0.55157163  0.40192599    -0.75500
Mg2771     Mg  0.93036312  0.51559328  0.62234736     1.58000
O2772       O  0.95198686  0.60543687  0.33778881    -0.82900
H2773       H  0.96209675  0.93967861  0.57725861    -0.06600
O2774       O  0.51687576  0.97236327  0.36276953    -0.88100
H2775       H  0.50922480  0.96334256  0.42020197    -0.06400
H2776       H  0.58764785  0.53661632  0.58816241    -0.06600
C2777       C  0.99676727  0.96132925  0.39270954     0.87000
C2778       C  0.95667566  0.95533849  0.59909041     0.87600
C2779       C  0.56971278  0.52007130  0.61228218     0.87600
H2780       H  0.54462696  0.58963852  0.41494671    -0.06600
O2781       O  0.95573520  0.54047273  0.38408802    -0.75600
Mg2782     Mg  0.57502944  0.51306226  0.36729735     1.58000
H2783       H  0.91391803  0.98985518  0.40133780    -0.06600
C2784       C  0.92890026  0.86433857  0.34375745     0.92600
O2785       O  0.54554552  0.92074166  0.65771342    -0.82800
C2786       C  0.57905234  0.93938065  0.66706046     0.92600
O2787       O  0.87018649  0.96971884  0.61827184    -0.82800
Mg2788     Mg  0.49937163  0.59071438  0.34807701     1.58200
O2789       O  0.96281358  0.88781074  0.34871381    -0.81100
O2790       O  0.59956774  0.65101202  0.65409091    -0.82800
C2791       C  0.51107873  0.74313154  0.52077169     0.86400
C2792       C  0.98904552  0.71427067  0.49104745    -0.53800
C2793       C  0.96793746  0.72273415  0.46891591     0.09300
C2794       C  0.97151211  0.76081759  0.47831665     0.20300
C2795       C  0.53416704  0.77963068  0.49774510    -0.54500
C2796       C  0.51373997  0.78841623  0.47471703     0.09400
C2797       C  0.98255170  0.74969271  0.54396017    -0.54100
C2798       C  0.96173668  0.75891816  0.52229856     0.10000
H2799       H  0.99132032  0.68967589  0.48679641     0.14500
H2800       H  0.95450971  0.76810266  0.46057264     0.00300
H2801       H  0.56385914  0.79765365  0.49954353     0.14800
H2802       H  0.98150519  0.75080959  0.57546816     0.14600
C2803       C  0.75185107  0.94882993  0.46424346     0.86400
C2804       C  0.77812199  0.46631369  0.49757636    -0.53800
C2805       C  0.76893903  0.48595813  0.52285661     0.09300
C2806       C  0.73217563  0.48458233  0.51314807     0.20300
C2807       C  0.71294953  0.92440459  0.48416048    -0.54500
C2808       C  0.70317877  0.94307550  0.51074107     0.09400
C2809       C  0.74825645  0.48052178  0.44624416    -0.54100
C2810       C  0.73688394  0.49879927  0.47118167     0.10000
H2811       H  0.80282697  0.46395494  0.50019060     0.14500
H2812       H  0.72383810  0.49975906  0.53357568     0.00300
H2813       H  0.69388982  0.89606066  0.47727769     0.14800
H2814       H  0.75293174  0.48671956  0.41528768     0.14600
C2815       C  0.71605498  0.72215269  0.46684304     0.86400
C2816       C  0.70917201  0.69772900  0.50298017    -0.53800
C2817       C  0.73724459  0.71251043  0.52898561     0.09300
C2818       C  0.77090341  0.75008837  0.51433603     0.20300
C2819       C  0.72552174  0.76013170  0.48318162    -0.54500
C2820       C  0.75376828  0.77447689  0.50832004     0.09400
C2821       C  0.75296538  0.72712926  0.44942438    -0.54100
C2822       C  0.78186364  0.74399717  0.47296311     0.10000
H2823       H  0.68393390  0.67152729  0.50810549     0.14500
H2824       H  0.79514924  0.76209092  0.53298323     0.00300
H2825       H  0.71089997  0.77449446  0.47544875     0.14800
H2826       H  0.75744864  0.72026264  0.42005562     0.14600
C2827       C  0.79098741  0.92536108  0.35745013    -0.06200
C2828       C  0.76275955  0.89485225  0.37852903    -0.17300
C2829       C  0.75205809  0.89869545  0.41683846     0.11000
C2830       C  0.76887048  0.93431573  0.43333473    -0.06100
C2831       C  0.80217619  0.96180127  0.41533783    -0.17400
C2832       C  0.81187164  0.95858908  0.37716265     0.11000
S2833       S  0.72031071  0.85715256  0.44333127    -0.32300
S2834       S  0.84726187  0.50025519  0.35457547    -0.32300
H2835       H  0.83121490  0.99405021  0.65178591     0.29000
H2836       H  0.73611304  0.87110542  0.47933288     0.29000
H2837       H  0.74766358  0.86843775  0.36439048     0.19600
H2838       H  0.81736633  0.48863324  0.42870080     0.19600
C2839       C  0.76546300  0.80956856  0.52896817    -0.06200
C2840       C  0.80318390  0.83709993  0.52846337    -0.17300
C2841       C  0.81453394  0.87157313  0.54551197     0.11000
C2842       C  0.78794764  0.87781924  0.56567509    -0.06100
C2843       C  0.75068684  0.84912209  0.56806539    -0.17400
C2844       C  0.73928823  0.81561550  0.54994339     0.11000
S2845       S  0.86276222  0.90645362  0.53944965    -0.32300
S2846       S  0.69135372  0.78069003  0.55753302    -0.32300
H2847       H  0.69805400  0.75108352  0.56127471     0.29000
H2848       H  0.85660612  0.93662540  0.54080895     0.29000
H2849       H  0.82383586  0.83215248  0.51387298     0.19600
H2850       H  0.73011867  0.85226080  0.58543395     0.19600
C2851       C  0.88559665  0.79510982  0.40690642    -0.06200
C2852       C  0.86766694  0.81527320  0.41559048    -0.17300
C2853       C  0.83378322  0.79938282  0.43680133     0.11000
C2854       C  0.81978138  0.76432533  0.45493319    -0.06100
C2855       C  0.83845126  0.74477218  0.44800411    -0.17400
C2856       C  0.86940566  0.75854180  0.42221680     0.11000
S2857       S  0.80772198  0.82307995  0.43428934    -0.32300
S2858       S  0.88136286  0.72505650  0.40480161    -0.32300
H2859       H  0.88512833  0.73593734  0.69895740     0.29000
H2860       H  0.77822768  0.79410404  0.41522672     0.29000
H2861       H  0.87852249  0.84267340  0.40359795     0.19600
H2862       H  0.82624408  0.71674354  0.45914506     0.19600
C2863       C  0.93455011  0.80745692  0.61278769    -0.06200
C2864       C  0.90940145  0.77028320  0.60503864    -0.17300
C2865       C  0.91269549  0.75420440  0.57029971     0.11000
C2866       C  0.94164092  0.77560587  0.54279398    -0.06100
C2867       C  0.96186741  0.81392704  0.54755770    -0.17400
C2868       C  0.95923606  0.82999802  0.58265642     0.11000
S2869       S  0.88302865  0.70520151  0.56485694    -0.32300
S2870       S  0.49050197  0.87830361  0.59028396    -0.32300
H2871       H  0.00593021  0.88712558  0.55211400     0.29000
H2872       H  0.88904840  0.70574167  0.52431183     0.29000
H2873       H  0.88980886  0.75276965  0.62775128     0.19600
H2874       H  0.48349471  0.83043233  0.52626977     0.19600
C2875       C  0.57460700  0.88207630  0.39772006    -0.06200
C2876       C  0.56399505  0.84636174  0.38490027    -0.17300
C2877       C  0.54453841  0.81569747  0.40970055     0.11000
C2878       C  0.53195103  0.82004290  0.44692337    -0.06100
C2879       C  0.54162475  0.85571216  0.45943859    -0.17400
C2880       C  0.56333627  0.88682178  0.43550872     0.11000
S2881       S  0.04240808  0.77294441  0.39608574    -0.32300
S2882       S  0.57821132  0.93171310  0.45600173    -0.32300
H2883       H  0.58766823  0.95151430  0.42072840     0.29000
H2884       H  0.04817653  0.78043909  0.35589121     0.29000
H2885       H  0.57472586  0.84305169  0.35685399     0.19600
H2886       H  0.53451678  0.85978422  0.48883265     0.19600
C2887       C  0.63654725  0.92692015  0.60968683    -0.06200
C2888       C  0.64260888  0.89775267  0.59883569    -0.17300
C2889       C  0.65878135  0.89759195  0.56244533     0.11000
C2890       C  0.66873679  0.92723679  0.53622468    -0.06100
C2891       C  0.65385010  0.95049582  0.54363885    -0.17400
C2892       C  0.63936383  0.95178129  0.58056900     0.11000
S2893       S  0.66536747  0.85884825  0.55210344    -0.32300
S2894       S  0.62991689  0.98870526  0.58924096    -0.32300
H2895       H  0.64725769  0.99814388  0.62469509     0.29000
H2896       H  0.70249476  0.87915901  0.53920516     0.29000
H2897       H  0.63775654  0.87667860  0.62009576     0.19600
H2898       H  0.65895022  0.47181537  0.52258226     0.19600
C2899       C  0.72361635  0.52395580  0.45648235    -0.06200
C2900       C  0.70762954  0.51644974  0.41985329    -0.17300
C2901       C  0.70163449  0.54200410  0.40027534     0.11000
C2902       C  0.70612199  0.57389921  0.41933695    -0.06100
C2903       C  0.71677312  0.57875491  0.45826856    -0.17400
C2904       C  0.72753479  0.55560083  0.47616932     0.11000
S2905       S  0.69590769  0.53559373  0.34897766    -0.32300
S2906       S  0.75087553  0.57158510  0.52114334    -0.32300
H2907       H  0.77838976  0.56229336  0.51146266     0.29000
H2908       H  0.72654307  0.57036133  0.67231718     0.29000
H2909       H  0.70291830  0.99193794  0.40440476     0.19600
H2910       H  0.72180658  0.60380524  0.47292956     0.19600
C2911       C  0.71811367  0.65865010  0.64299901    -0.06200
C2912       C  0.73725286  0.69728721  0.63925199    -0.17300
C2913       C  0.74534372  0.71569391  0.60323472     0.11000
C2914       C  0.73260334  0.69503764  0.56870852    -0.06100
C2915       C  0.71290405  0.65613103  0.57241088    -0.17400
C2916       C  0.70617988  0.63783289  0.60867581     0.11000
S2917       S  0.77138834  0.76555604  0.60366592    -0.32300
S2918       S  0.68570931  0.58835422  0.60964663    -0.32300
H2919       H  0.67734539  0.58229571  0.57020052     0.29000
H2920       H  0.78144052  0.77016299  0.64264941     0.29000
H2921       H  0.74717697  0.71343144  0.66524158     0.19600
H2922       H  0.70401062  0.63983197  0.54639668     0.19600
C2923       C  0.63602103  0.71057799  0.38268239    -0.06200
C2924       C  0.62337730  0.69847872  0.42089837    -0.17300
C2925       C  0.64760398  0.69893400  0.44862987     0.11000
C2926       C  0.68532854  0.71050025  0.43735143    -0.06100
C2927       C  0.69664564  0.72156916  0.39805661    -0.17400
C2928       C  0.67269127  0.72144805  0.37115159     0.11000
S2929       S  0.63068078  0.68958365  0.49876731    -0.32300
S2930       S  0.69231356  0.74284084  0.32438171    -0.32300
H2931       H  0.66185719  0.71775109  0.63657000     0.29000
H2932       H  0.59325603  0.67819864  0.49255522     0.29000
H2933       H  0.59545063  0.69202422  0.42975716     0.19600
H2934       H  0.72531401  0.73468356  0.38811309     0.19600
C2935       C  0.53157504  0.73029668  0.54617281    -0.06200
C2936       C  0.51171440  0.70794576  0.57870475    -0.17300
C2937       C  0.53026604  0.70599981  0.61034119     0.11000
C2938       C  0.56895876  0.72236944  0.60745425    -0.06100
C2939       C  0.58801595  0.73772788  0.57211343    -0.17400
C2940       C  0.56966944  0.74110001  0.54082298     0.11000
S2941       S  0.50349722  0.68584676  0.32126807    -0.32300
S2942       S  0.59593676  0.75657542  0.49514966    -0.32300
H2943       H  0.56505591  0.73726066  0.47198652     0.29000
H2944       H  0.53014833  0.70817939  0.34767461     0.29000
H2945       H  0.48177447  0.69519544  0.58123169     0.19600
H2946       H  0.61746877  0.74820748  0.56942745     0.19600
C2947       C  0.94834024  0.69900454  0.43583129    -0.06200
C2948       C  0.95325408  0.71583042  0.39964594    -0.17300
C2949       C  0.93993768  0.69511674  0.36628077     0.11000
C2950       C  0.92219714  0.65608731  0.36853758    -0.06100
C2951       C  0.91724757  0.63898172  0.40472397    -0.17400
C2952       C  0.92885131  0.65993584  0.43848064     0.11000
S2953       S  0.94549148  0.72055986  0.65528193    -0.32300
S2954       S  0.91415868  0.63513027  0.48413859    -0.32300
H2955       H  0.91342094  0.66349390  0.50566178     0.29000
H2956       H  0.93924009  0.69240553  0.62904894     0.29000
H2957       H  0.46727490  0.74548955  0.39722233     0.19600
H2958       H  0.90114926  0.60914284  0.40718434     0.19600
C2959       C  0.84554471  0.55673841  0.60844701    -0.06200
C2960       C  0.80732170  0.53562574  0.61818444    -0.17300
C2961       C  0.78173131  0.51219841  0.59156214     0.11000
C2962       C  0.79452739  0.50846631  0.55409421    -0.06100
C2963       C  0.83329751  0.52706181  0.54568249    -0.17400
C2964       C  0.85875385  0.55136907  0.57205542     0.11000
S2965       S  0.73315123  0.48830916  0.60641258    -0.32300
S2966       S  0.90721245  0.57568113  0.55648795    -0.32300
H2967       H  0.91732143  0.60834998  0.57689477     0.29000
H2968       H  0.73749888  0.49753956  0.64592329     0.30500
H2969       H  0.79721306  0.54001583  0.64608063     0.19600
H2970       H  0.84395117  0.52457444  0.51727944     0.19600
N2971       N  0.89537316  0.60261705  0.98734919    -0.03500
C2972       C  0.86579451  0.59123368  0.96384992    -0.01000
C2973       C  0.85149564  0.61478431  0.96582310    -0.23800
C2974       C  0.87149341  0.64111928  0.65828815    -0.24000
C2975       C  0.89843149  0.63386193  0.67059613    -0.01100
H2976       H  0.82763680  0.61193108  0.95123106     0.12700
H2977       H  0.86630231  0.66290740  0.66801043     0.12800
N2978       N  0.59496360  0.70422844  0.99500324    -0.03500
C2979       C  0.59036667  0.72930022  0.97528713    -0.01000
C2980       C  0.60798641  0.76336276  0.99266351    -0.23800
C2981       C  0.62397902  0.75914214  0.69140842    -0.24000
C2982       C  0.61559089  0.72269620  0.69213141    -0.01100
H2983       H  0.60923133  0.78850424  0.98287210     0.12700
H2984       H  0.64168020  0.78075192  0.71081767     0.12800
N2985       N  0.69506028  0.61206096  0.70146881    -0.03500
C2986       C  0.71455234  0.60777018  0.73026262    -0.01000
C2987       C  0.75052588  0.63709595  0.72969022    -0.23800
C2988       C  0.75443239  0.65919645  0.03240479    -0.24000
C2989       C  0.72066470  0.64338241  0.01473482    -0.01100
H2990       H  0.77279517  0.64023836  0.74744315     0.12700
H2991       H  0.78021436  0.68310994  0.02242707     0.12800
N2992       N  0.60035204  0.92136398  0.00486619    -0.03500
C2993       C  0.63328424  0.93282571  0.98522009    -0.01000
C2994       C  0.65882786  0.93296824  0.00991369    -0.23800
C2995       C  0.64091406  0.92042564  0.71204704    -0.24000
C2996       C  0.60486973  0.91266062  0.70798571    -0.01100
H2997       H  0.68570669  0.93624969  0.00168208     0.12700
H2998       H  0.65133305  0.91234633  0.73615127     0.12800
N2999       N  0.91840893  0.82587990  0.01050723    -0.03500
C3000       C  0.94111946  0.81833159  0.98741165    -0.01000
C3001       C  0.96083046  0.80704740  0.00924123    -0.23800
C3002       C  0.94663711  0.80300259  0.71313842    -0.24000
C3003       C  0.91837262  0.81120356  0.71227067    -0.01100
H3004       H  0.98004820  0.79835592  0.99848078     0.12700
H3005       H  0.95306460  0.79116663  0.73701016     0.12800
N3006       N  0.81227904  0.91612499  0.95683468    -0.03500
C3007       C  0.79092097  0.92433035  0.64788732    -0.01000
C3008       C  0.76564378  0.92892591  0.62801502    -0.23800
C3009       C  0.77110778  0.92306076  0.92324269    -0.24000
C3010       C  0.79725894  0.91159108  0.92157277    -0.01100
H3011       H  0.74412728  0.93369615  0.64042652     0.12700
H3012       H  0.75288981  0.92047891  0.90062033     0.12800
O3013       O  0.96077616  0.95124754  0.96684672    -0.88400
C3014       C  0.93243716  0.50683925  0.71110159     0.87600
Mg3015     Mg  0.00306105  0.93803785  0.97911211     1.58100
O3016       O  0.98755427  0.55870345  0.96207140    -0.88100
O3017       O  0.94751136  0.97856085  0.92212394    -0.75500
C3018       C  0.65519947  0.59084437  0.69597495     0.92700
O3019       O  0.96170573  0.94760185  0.72522555    -0.75300
O3020       O  0.63708881  0.55656082  0.70474907    -0.82800
Mg3021     Mg  0.91820601  0.93531723  0.67865832     1.58000
C3022       C  0.57881504  0.66533486  0.98785862     0.92600
O3023       O  0.86707794  0.91866474  0.97523083    -0.81100
H3024       H  0.99634644  0.57052416  0.90519463    -0.06400
C3025       C  0.54915158  0.57375086  0.72599197     0.87500
O3026       O  0.54608381  0.98629370  0.94011491    -0.75600
O3027       O  0.93113155  0.99265733  0.67913379    -0.88300
O3028       O  0.54369111  0.64574802  0.98455111    -0.81100
C3029       C  0.91977967  0.58689797  0.65697798     0.92700
C3030       C  0.85186999  0.93540824  0.96050202     0.92600
Mg3031     Mg  0.58588079  0.59176393  0.97945941     1.58000
O3032       O  0.63902270  0.60672970  0.68098952    -0.81100
O3033       O  0.54291260  0.58265533  0.93361312    -0.75300
O3034       O  0.90940172  0.55512875  0.64287755    -0.81100
O3035       O  0.90520019  0.87469811  0.67287371    -0.82900
O3036       O  0.59364478  0.97326780  0.00953555    -0.81200
C3037       C  0.50816882  0.57062520  0.93258555     0.87000
O3038       O  0.57213809  0.53477070  0.97753125    -0.88300
O3039       O  0.54311224  0.57708881  0.69199970    -0.88400
O3040       O  0.56008959  0.55157149  0.73525933    -0.75500
Mg3041     Mg  0.93036301  0.51559321  0.95568070     1.58000
O3042       O  0.95198699  0.60543694  0.67112214    -0.82900
H3043       H  0.96209656  0.93968033  0.91059384    -0.06600
O3044       O  0.51687577  0.97236334  0.69610282    -0.88100
H3045       H  0.50922503  0.96334279  0.75353534    -0.06400
H3046       H  0.58764776  0.53661578  0.92149740    -0.06600
C3047       C  0.99676731  0.96132922  0.72604286     0.87000
C3048       C  0.95667560  0.95533869  0.93242400     0.87600
C3049       C  0.56971280  0.52007135  0.94561570     0.87600
H3050       H  0.54462698  0.58963798  0.74827976    -0.06600
O3051       O  0.95573507  0.54047257  0.71742146    -0.75600
Mg3052     Mg  0.57502952  0.51306235  0.70063071     1.58000
H3053       H  0.91391815  0.98985552  0.73467214    -0.06600
C3054       C  0.92890024  0.86433848  0.67709078     0.92600
O3055       O  0.54554549  0.92074160  0.99104679    -0.82800
C3056       C  0.57905226  0.93938056  0.00039381     0.92600
O3057       O  0.87018660  0.96971903  0.95160528    -0.82800
Mg3058     Mg  0.49937168  0.59071449  0.68141035     1.58200
O3059       O  0.96281359  0.88781074  0.68204704    -0.81100
O3060       O  0.59956767  0.65101186  0.98742423    -0.82800
C3061       C  0.51107871  0.74313163  0.85410493     0.86400
C3062       C  0.98904559  0.71427070  0.82438075    -0.53800
C3063       C  0.96793742  0.72273415  0.80224913     0.09300
C3064       C  0.97151204  0.76081766  0.81164968     0.20300
C3065       C  0.53416699  0.77963060  0.83107837    -0.54500
C3066       C  0.51373997  0.78841634  0.80805038     0.09400
C3067       C  0.98255149  0.74969251  0.87729317    -0.54100
C3068       C  0.96173659  0.75891821  0.85563147     0.10000
H3069       H  0.99132028  0.68967613  0.82013027     0.14500
H3070       H  0.95450986  0.76810308  0.79390561     0.00300
H3071       H  0.56385844  0.79765305  0.83287695     0.14800
H3072       H  0.98150500  0.75080928  0.90879992     0.14600
C3073       C  0.75185129  0.94883012  0.79757648     0.86400
C3074       C  0.77812216  0.46631384  0.83090968    -0.53800
C3075       C  0.76893912  0.48595820  0.85618982     0.09300
C3076       C  0.73217572  0.48458226  0.84648099     0.20300
C3077       C  0.71294963  0.92440476  0.81749372    -0.54500
C3078       C  0.70317890  0.94307559  0.84407431     0.09400
C3079       C  0.74825651  0.48052187  0.77957682    -0.54100
C3080       C  0.73688402  0.49879916  0.80451425     0.10000
H3081       H  0.80282717  0.46395522  0.83352403     0.14500
H3082       H  0.72383838  0.49975829  0.86690780     0.00300
H3083       H  0.69389001  0.89606076  0.81061147     0.14800
H3084       H  0.75293211  0.48672023  0.74861865     0.14600
C3085       C  0.71605517  0.72215286  0.80017621     0.86400
C3086       C  0.70917224  0.69772921  0.83631342    -0.53800
C3087       C  0.73724479  0.71251059  0.86231889     0.09300
C3088       C  0.77090349  0.75008845  0.84766926     0.20300
C3089       C  0.72552183  0.76013181  0.81651484    -0.54500
C3090       C  0.75376834  0.77447690  0.84165324     0.09400
C3091       C  0.75296538  0.72712927  0.78275750    -0.54100
C3092       C  0.78186364  0.74399718  0.80629616     0.10000
H3093       H  0.68393482  0.67152846  0.84143861     0.14500
H3094       H  0.79514906  0.76209097  0.86631632     0.00300
H3095       H  0.71090005  0.77449450  0.80878202     0.14800
H3096       H  0.75744845  0.72026204  0.75338816     0.14600
C3097       C  0.79098755  0.92536132  0.69078362    -0.06200
C3098       C  0.76275968  0.89485246  0.71186242    -0.17300
C3099       C  0.75205830  0.89869567  0.75017178     0.11000
C3100       C  0.76887093  0.93431615  0.76666804    -0.06100
C3101       C  0.80217659  0.96180176  0.74867116    -0.17400
C3102       C  0.81187193  0.95858953  0.71049615     0.11000
S3103       S  0.72031089  0.85715279  0.77666481    -0.32300
S3104       S  0.84726200  0.50025532  0.68790894    -0.32300
H3105       H  0.83121519  0.99405039  0.98511990     0.29000
H3106       H  0.73611332  0.87110573  0.81266636     0.29000
H3107       H  0.74766376  0.86843774  0.69772380     0.19600
H3108       H  0.81736720  0.48863489  0.76203468     0.19600
C3109       C  0.76546340  0.80956849  0.86230121    -0.06200
C3110       C  0.80318428  0.83709976  0.86179636    -0.17300
C3111       C  0.81453429  0.87157294  0.87884496     0.11000
C3112       C  0.78794787  0.87781911  0.89900815    -0.06100
C3113       C  0.75068710  0.84912199  0.90139846    -0.17400
C3114       C  0.73928854  0.81561546  0.88327645     0.11000
S3115       S  0.86276235  0.90645363  0.87278293    -0.32300
S3116       S  0.69135384  0.78069011  0.89086629    -0.32300
H3117       H  0.69805417  0.75108364  0.89460799     0.29000
H3118       H  0.85660613  0.93662535  0.87414221     0.29000
H3119       H  0.82383731  0.83215201  0.84720497     0.19600
H3120       H  0.73011927  0.85226070  0.91876639     0.19600
C3121       C  0.88559664  0.79510987  0.74023984    -0.06200
C3122       C  0.86766691  0.81527325  0.74892391    -0.17300
C3123       C  0.83378322  0.79938297  0.77013462     0.11000
C3124       C  0.81978142  0.76432554  0.78826649    -0.06100
C3125       C  0.83845120  0.74477234  0.78133739    -0.17400
C3126       C  0.86940561  0.75854184  0.75555021     0.11000
S3127       S  0.80772239  0.82308049  0.76762288    -0.32300
S3128       S  0.88136283  0.72505639  0.73813564    -0.32300
H3129       H  0.88512854  0.73593714  0.03229017     0.29000
H3130       H  0.77822789  0.79410465  0.74856043     0.29000
H3131       H  0.87852256  0.84267370  0.73693133     0.19600
H3132       H  0.82624382  0.71674382  0.79247804     0.19600
C3133       C  0.93455008  0.80745685  0.94612107    -0.06200
C3134       C  0.90940148  0.77028306  0.93837189    -0.17300
C3135       C  0.91269550  0.75420428  0.90363291     0.11000
C3136       C  0.94164097  0.77560586  0.87612734    -0.06100
C3137       C  0.96186741  0.81392707  0.88089122    -0.17400
C3138       C  0.95923605  0.82999800  0.91598997     0.11000
S3139       S  0.88302863  0.70520133  0.89819013    -0.32300
S3140       S  0.49050201  0.87830368  0.92361731    -0.32300
H3141       H  0.00593043  0.88712617  0.88544823     0.29000
H3142       H  0.88904821  0.70574140  0.85764500     0.29000
H3143       H  0.88980894  0.75276954  0.96108419     0.19600
H3144       H  0.48349574  0.83043324  0.85960188     0.19600
C3145       C  0.57460703  0.88207637  0.73105352    -0.06200
C3146       C  0.56399501  0.84636189  0.71823372    -0.17300
C3147       C  0.54453839  0.81569764  0.74303388     0.11000
C3148       C  0.53195119  0.82004315  0.78025697    -0.06100
C3149       C  0.54162505  0.85571249  0.79277210    -0.17400
C3150       C  0.56333635  0.88682200  0.76884219     0.11000
S3151       S  0.04240817  0.77294464  0.72941836    -0.32300
S3152       S  0.57821155  0.93171352  0.78933452    -0.32300
H3153       H  0.58766840  0.95151427  0.75406091     0.29000
H3154       H  0.04817671  0.78043953  0.68922383     0.29000
H3155       H  0.57472577  0.84305190  0.69018735     0.19600
H3156       H  0.53451669  0.85978491  0.82216736     0.19600
C3157       C  0.63654709  0.92692021  0.94302002    -0.06200
C3158       C  0.64260879  0.89775273  0.93216888    -0.17300
C3159       C  0.65878138  0.89759207  0.89577854     0.11000
C3160       C  0.66873685  0.92723695  0.86955800    -0.06100
C3161       C  0.65385012  0.95049603  0.87697225    -0.17400
C3162       C  0.63936381  0.95178147  0.91390240     0.11000
S3163       S  0.66536772  0.85884845  0.88543668    -0.32300
S3164       S  0.62991725  0.98870558  0.92257492    -0.32300
H3165       H  0.64725817  0.99814366  0.95802897     0.29000
H3166       H  0.70249504  0.87915914  0.87253846     0.29000
H3167       H  0.63775613  0.87667887  0.95342845     0.19600
H3168       H  0.65895050  0.47181578  0.85591555     0.19600
C3169       C  0.72361631  0.52395586  0.78981570    -0.06200
C3170       C  0.70762943  0.51644993  0.75318670    -0.17300
C3171       C  0.70163437  0.54200423  0.73360871     0.11000
C3172       C  0.70612203  0.57389934  0.75267025    -0.06100
C3173       C  0.71677321  0.57875498  0.79160193    -0.17400
C3174       C  0.72753480  0.55560079  0.80950273     0.11000
S3175       S  0.69590759  0.53559368  0.68231101    -0.32300
S3176       S  0.75087553  0.57158492  0.85447673    -0.32300
H3177       H  0.77838983  0.56229332  0.84479586     0.29000
H3178       H  0.72654238  0.57036059  0.00564982     0.29000
H3179       H  0.70291793  0.99193673  0.73773739     0.19600
H3180       H  0.72180676  0.60380515  0.80626289     0.19600
C3181       C  0.71811362  0.65865000  0.97633222    -0.06200
C3182       C  0.73725277  0.69728699  0.97258535    -0.17300
C3183       C  0.74534361  0.71569365  0.93656809     0.11000
C3184       C  0.73260317  0.69503727  0.90204158    -0.06100
C3185       C  0.71290392  0.65613071  0.90574382    -0.17400
C3186       C  0.70617979  0.63783268  0.94200874     0.11000
S3187       S  0.77138829  0.76555590  0.93699927    -0.32300
S3188       S  0.68570937  0.58835419  0.94298016    -0.32300
H3189       H  0.67734525  0.58229574  0.90353411     0.29000
H3190       H  0.78144050  0.77016284  0.97598276     0.29000
H3191       H  0.74717684  0.71343135  0.99857549     0.19600
H3192       H  0.70401020  0.63983062  0.87972789     0.19600
C3193       C  0.63602114  0.71057803  0.71601561    -0.06200
C3194       C  0.62337736  0.69847884  0.75423152    -0.17300
C3195       C  0.64760405  0.69893402  0.78196312     0.11000
C3196       C  0.68532859  0.71050023  0.77068479    -0.06100
C3197       C  0.69664558  0.72156900  0.73138993    -0.17400
C3198       C  0.67269125  0.72144791  0.70448490     0.11000
S3199       S  0.63068082  0.68958376  0.83210057    -0.32300
S3200       S  0.69231349  0.74284066  0.65771505    -0.32300
H3201       H  0.66185700  0.71775086  0.96990344     0.29000
H3202       H  0.59325610  0.67819878  0.82588839     0.29000
H3203       H  0.59545119  0.69202465  0.76308989     0.19600
H3204       H  0.72531391  0.73468306  0.72144619     0.19600
C3205       C  0.53157510  0.73029668  0.87950612    -0.06200
C3206       C  0.51171454  0.70794582  0.91203815    -0.17300
C3207       C  0.53026620  0.70599991  0.94367459     0.11000
C3208       C  0.56895892  0.72236944  0.94078762    -0.06100
C3209       C  0.58801607  0.73772789  0.90544679    -0.17400
C3210       C  0.56966954  0.74110000  0.87415635     0.11000
S3211       S  0.50349734  0.68584676  0.65460140    -0.32300
S3212       S  0.59593708  0.75657568  0.82848329    -0.32300
H3213       H  0.56505639  0.73726095  0.80531995     0.29000
H3214       H  0.53014818  0.70817934  0.68100824     0.29000
H3215       H  0.48177495  0.69519600  0.91456544     0.19600
H3216       H  0.61746915  0.74820742  0.90276072     0.19600
C3217       C  0.94834013  0.69900430  0.76916476    -0.06200
C3218       C  0.95325402  0.71583025  0.73297923    -0.17300
C3219       C  0.93993758  0.69511647  0.69961396     0.11000
C3220       C  0.92219742  0.65608757  0.70187074    -0.06100
C3221       C  0.91724779  0.63898199  0.73805717    -0.17400
C3222       C  0.92885146  0.65993604  0.77181404     0.11000
S3223       S  0.94549161  0.72056030  0.98861557    -0.32300
S3224       S  0.91415868  0.63513018  0.81747181    -0.32300
H3225       H  0.91342087  0.66349364  0.83899531     0.29000
H3226       H  0.93924002  0.69240592  0.96238264     0.29000
H3227       H  0.46727461  0.74548906  0.73055578     0.19600
H3228       H  0.90115076  0.60914493  0.74051711     0.19600
C3229       C  0.84554447  0.55673826  0.94178068    -0.06200
C3230       C  0.80732145  0.53562564  0.95151812    -0.17300
C3231       C  0.78173105  0.51219836  0.92489584     0.11000
C3232       C  0.79452701  0.50846627  0.88742809    -0.06100
C3233       C  0.83329713  0.52706173  0.87901631    -0.17400
C3234       C  0.85875355  0.55136901  0.90538923     0.11000
S3235       S  0.73315116  0.48830917  0.93974585    -0.32300
S3236       S  0.90721225  0.57568094  0.88982135    -0.32300
H3237       H  0.91732166  0.60834993  0.91022811     0.29000
H3238       H  0.73749869  0.49753947  0.97925658     0.30500
H3239       H  0.79721285  0.54001533  0.97941492     0.19600
H3240       H  0.84394996  0.52457460  0.85061502     0.19600
loop_ 
_geom_bond_atom_site_label_1 
_geom_bond_atom_site_label_2 
_geom_bond_distance 
_geom_bond_site_symmetry_2 
_ccdc_geom_bond_type 
N1            C2   1.373       .  A
N1          C275   1.369       .  A
N1          C329   1.465       .  S
C2            C3   1.380       .  A
C2          C259   1.480       .  S
C3          C274   1.351       .  A
C3            H6   1.083       .  S
C4            C5   1.381   1_556  A
C4          C543   1.351       .  A
C4            H7   1.083   1_556  S
C5          N541   1.369   1_554  A
C5          C250   1.468       .  S
N8            C9   1.349       .  A
N8          C282   1.354       .  A
N8           C52   1.440       .  S
C9           C10   1.380       .  A
C9          C238   1.454       .  S
C10         C281   1.370       .  A
C10          H13   1.083       .  S
C11          C12   1.383       .  A
C11         C550   1.370   1_554  A
C11          H14   1.083       .  S
C12         N548   1.354   1_554  A
C12         C223   1.466       .  S
N15          C16   1.374       .  A
N15         C559   1.375       .  A
N15          C48   1.457       .  S
C16          C17   1.381       .  A
C16         C202   1.492       .  S
C17         C558   1.359       .  A
C17          H20   1.083       .  S
C18          C19   1.384       .  A
C18         C287   1.359       .  A
C18          H21   1.083       .  S
C19         N285   1.375       .  A
C19         C211   1.505       .  S
N22          C23   1.355       .  A
N22         C296   1.357       .  A
N22          C86   1.433       .  S
C23          C24   1.386       .  A
C23         C187   1.485       .  S
C24         C295   1.367       .  A
C24          H27   1.081       .  S
C25          C26   1.379       .  A
C25         C564   1.367       .  A
C25          H28   1.083       .  S
C26         N562   1.357       .  A
C26         C175   1.476       .  S
N29          C30   1.361       .  A
N29         C303   1.361       .  A
N29         C354   1.441       .  S
C30          C31   1.380       .  A
C30         C163   1.484       .  S
C31         C302   1.365       .  A
C31          H34   1.081       .  S
C32          C33   1.379       .  A
C32         C571   1.365       .  A
C32          H35   1.073       .  S
C33         N569   1.361       .  A
C33         C151   1.492       .  S
N36          C40   1.358       .  A
N36         C307   1.359       .  A
N36          C60   1.437       .  S
C37         N576   1.359       .  A
C37          C38   1.369       .  A
C37         C127   1.479   1_556  S
C38         C579   1.364       .  A
C38          H41   1.080       .  S
C39          C40   1.389       .  A
C39         C308   1.364       .  A
C39          H42   1.077       .  S
C40         C142   1.486       .  S
O43         Mg45   2.146       .  S
O43        Mg321   2.146       .  S
O43          C78   1.231       .  S
C44         H893   1.081   1_545  S
C44         O867   1.237   1_545  S
C44          O81   1.271       .  A
Mg45       O1964   2.148       .  S
Mg45        O359   2.267       .  S
Mg45       O1705   2.269       .  S
Mg45       O1676   2.307       .  S
O46         Mg71   2.170       .  S
O46       Mg1978   2.168       .  S
O46        C1687   1.235       .  S
O47          C78   1.265       .  A
O47        Mg881   2.289       .  S
C48          O50   1.275       .  A
C48          O62   1.281       .  A
O49          C77   1.274       .  A
O49         Mg51   2.326       .  S
O50         Mg82   2.308       .  S
Mg51         O57   2.179       .  S
Mg51        O583   2.146   1_554  S
Mg51         O65   2.321       .  S
Mg51        O593   2.310   1_554  S
C52          O90   1.271       .  A
C52          O58   1.278       .  A
O53          C60   1.273       .  A
O53        Mg321   2.310       .  S
H54        C1687   1.081       .  S
C55          H80   1.081       .  S
C55          O69   1.232       .  S
C55          O70   1.267       .  A
O56         C889   1.273       .  A
O56       Mg1665   2.307       .  S
O57       Mg1421   2.196   1_554  S
O57         C854   1.237       .  S
O58        Mg358   2.329   1_455  S
C59         N541   1.465       .  S
C59          O72   1.282   1_556  A
C59          O64   1.273       .  A
C60          O87   1.277       .  A
Mg61         O68   2.156       .  S
Mg61        O339   2.175       .  S
Mg61         O63   2.319       .  S
Mg61         O90   2.265       .  S
Mg61        O332   2.354       .  S
O62        Mg601   2.354   1_554  S
O63          C67   1.272       .  A
O64        Mg611   2.314       .  S
O65          C84   1.272       .  A
O66          C86   1.275       .  A
O66       Mg1162   2.297       .  S
C67        H1674   1.081   1_455  S
C67        O1666   1.235   1_455  S
O68        Mg352   2.187       .  S
O68          C79   1.238       .  S
O69         Mg88   2.203   1_455  S
O69        Mg601   2.175   1_554  S
O70         Mg82   2.302       .  S
Mg71       O1137   2.196   1_545  S
Mg71        O857   2.289   1_545  S
Mg71        O334   2.314       .  S
Mg71        O897   2.279   1_545  S
O72       Mg1708   2.378       .  S
H73          C78   1.081       .  S
O74       Mg2205   2.148   1_554  S
O74        Mg892   2.164       .  S
O74        C1697   1.236   1_455  S
H75        C1697   1.081   1_455  S
H76          C79   1.081       .  S
C77        H1695   1.081       .  S
C77        O1694   1.236       .  S
C79         O866   1.273   1_545  A
O81       Mg1708   2.302       .  S
Mg82        O608   2.187   1_554  S
Mg82        O884   2.164   1_545  S
Mg82       O1416   2.297   1_545  S
H83         C854   1.081       .  S
C84         N569   1.441       .  S
C84          O89   1.271       .  A
O85          C86   1.265       .  A
O85       Mg1665   2.269       .  S
O87        Mg881   2.279       .  S
Mg88       O2206   2.168   1_554  S
Mg88        O598   2.329   1_654  S
Mg88       O1692   2.378       .  S
Mg88       O1701   2.302       .  S
O89        Mg585   2.267   1_554  S
C91          C95   1.542       .  S
C91        C1712   1.516   1_455  S
C91        C1717   1.536   1_455  S
C91         C235   1.519       .  S
C92        C1711   1.516       .  S
C92          H99   1.086       .  S
C92          C93   1.359       .  D
C93          C94   1.556       .  S
C93         C247   1.483       .  S
C94          C98   1.545       .  S
C94        C1716   1.546       .  S
C94         H100   1.105       .  S
C95         H101   1.083       .  S
C95          C96   1.363       .  D
C96        C1714   1.546   1_455  S
C96         C178   1.484       .  S
C97        C1711   1.536       .  S
C97         H102   1.086       .  S
C97          C98   1.359       .  D
C98         C166   1.485       .  S
C103        C107   1.549       .  S
C103        C914   1.530       .  S
C103        C919   1.544       .  S
C103        C130   1.535       .  S
C104        C913   1.530       .  S
C104        H111   1.087       .  S
C104        C105   1.360       .  D
C105        C106   1.551       .  S
C105        C262   1.501   1_565  S
C106        C110   1.536       .  S
C106        C918   1.546       .  S
C106        H112   1.099       .  S
C107        H113   1.078       .  S
C107        C108   1.373       .  D
C108        C916   1.546       .  S
C108        C190   1.489       .  S
C109        C913   1.544       .  S
C109        H114   1.087       .  S
C109        C110   1.364       .  D
C110        C199   1.509   1_565  S
C115        C116   1.542       .  S
C115        C121   1.537       .  S
C115        C119   1.540       .  S
C115        C226   1.543       .  S
C116        H123   1.083       .  S
C116        C117   1.380       .  D
C117        C118   1.563       .  S
C117        C214   1.517       .  S
C118        C122   1.536       .  S
C118        C120   1.526       .  S
C118        H124   1.106       .  S
C119        H125   1.087       .  S
C119        C120   1.364       .  D
C120        C139   1.481       .  S
C121        H126   1.083       .  S
C121        C122   1.351       .  D
C122        C154   1.477       .  S
C127        C128   1.408       .  A
C127        C132   1.405       .  A
C128        C129   1.409       .  A
C128        H137   1.084       .  S
C129        C130   1.417       .  A
C129        S133   1.798       .  S
C130        C131   1.405       .  A
C131        C132   1.385       .  A
C131        H948   1.085       .  S
C132        S944   1.782       .  S
S133        H136   1.408       .  S
S134        C942   1.782   1_545  S
S134       H1485   1.397   1_544  S
H135       S1214   1.397       .  S
H138        C941   1.085       .  S
C139        C140   1.407       .  A
C139        C144   1.405       .  A
C140        C141   1.405       .  A
C140        H149   1.082       .  S
C141        C142   1.411       .  A
C141        S145   1.801       .  S
C142        C143   1.408       .  A
C143        C144   1.387       .  A
C143        H150   1.083       .  S
C144        S146   1.797       .  S
S145        H148   1.406       .  S
S146        H147   1.406       .  S
C151        C152   1.399       .  A
C151        C156   1.424       .  A
C152        C153   1.396       .  A
C152        H161   1.079       .  S
C153        C154   1.419       .  A
C153        S157   1.800       .  S
C154        C155   1.393       .  A
C155        C156   1.397       .  A
C155        H162   1.085       .  S
C156        S158   1.794       .  S
S157        H160   1.405       .  S
S158        H699   1.406       .  S
H159        S428   1.406       .  S
C163        C164   1.405       .  A
C163        C168   1.408       .  A
C164        C165   1.402       .  A
C164        H173   1.084       .  S
C165        C166   1.412       .  A
C165        S169   1.801       .  S
C166        C167   1.401       .  A
C167        C168   1.405       .  A
C167       H1794   1.076       .  S
C168       S1790   1.799       .  S
S169        H172   1.408       .  S
S170       C1788   1.799       .  S
S170       H1791   1.407   1_655  S
H171       S1790   1.407       .  S
H174       C1787   1.076       .  S
C175        C176   1.402       .  A
C175        C180   1.411       .  A
C176        C177   1.399       .  A
C176        H185   1.084       .  S
C177        C178   1.409       .  A
C177       S1801   1.803       .  S
C178        C179   1.406       .  A
C179        C180   1.404       .  A
C179        H186   1.079       .  S
C180        S182   1.805       .  S
S181       C1797   1.803       .  S
S181        H184   1.407       .  S
S182        H183   1.404       .  S
C187        C188   1.407       .  A
C187        C192   1.410       .  A
C188        C189   1.399       .  A
C188        H197   1.084       .  S
C189        C190   1.415       .  A
C189        S193   1.802       .  S
C190        C191   1.405       .  A
C191        C192   1.397       .  A
C191       H1008   1.085       .  S
C192        S194   1.792       .  S
S193        H196   1.393       .  S
S194        H195   1.396       .  S
H198       C1001   1.085       .  S
C199        C200   1.410       .  A
C199        C204   1.419       .  A
C200        C201   1.397       .  A
C200       H1019   1.082   1_545  S
C201        C202   1.411       .  A
C201        S205   1.794       .  S
C202        C203   1.412       .  A
C203        C204   1.408       .  A
C203        H210   1.085       .  S
C204        S206   1.803       .  S
S205        H748   1.407       .  S
S206        H207   1.406       .  S
H208        S475   1.407       .  S
H209       C1010   1.082       .  S
C211        C212   1.404       .  A
C211        C216   1.415       .  A
C212        C213   1.404       .  A
C212        H221   1.082       .  S
C213        C214   1.421       .  A
C213        S217   1.807       .  S
C214        C215   1.414       .  A
C215        C216   1.414       .  A
C215        H222   1.082       .  S
C216        S218   1.802       .  S
S217        H220   1.407       .  S
S218        H219   1.407       .  S
C223        C224   1.398       .  A
C223        C228   1.396       .  A
C224        C225   1.410       .  A
C224        H233   1.083       .  S
C225        C226   1.428       .  A
C225        S229   1.808       .  S
C226        C227   1.418       .  A
C227        C228   1.387       .  A
C227        H234   1.075       .  S
C228        S230   1.803   1_554  S
S229        H232   1.407       .  S
S230        H771   1.404       .  S
H231        S500   1.404       .  S
C235        C236   1.408       .  A
C235        C240   1.417       .  A
C236        C237   1.387       .  A
C236        H245   1.082   1_455  S
C237        C238   1.398       .  A
C237        S511   1.795       .  S
C238        C239   1.396       .  A
C239        C240   1.394       .  A
C239        H246   1.075       .  S
C240        S242   1.805       .  S
S241        C777   1.795       .  S
S241        H244   1.401   1_556  S
S242        H243   1.406       .  S
C247        C248   1.394       .  A
C247        C252   1.417       .  A
C248        C249   1.391       .  A
C248       H1877   1.077       .  S
C249        C250   1.417       .  A
C249        S793   1.810   1_554  S
C250        C251   1.399       .  A
C251        C252   1.400       .  A
C251        H258   1.084       .  S
C252        S254   1.801       .  S
S253        C519   1.810       .  S
S253        H256   1.402       .  S
S254        H255   1.405       .  S
H257       C1868   1.077       .  S
C259        C260   1.406       .  A
C259        C264   1.409       .  A
C260        C261   1.399       .  A
C260        H269   1.084       .  S
C261        C262   1.413       .  A
C261        S265   1.802   1_545  S
C262        C263   1.414       .  A
C263        C264   1.403       .  A
C263        H270   1.083       .  S
C264        S266   1.804       .  S
S265        H268   1.406       .  S
S266        H267   1.404       .  S
N271        C545   1.369       .  A
N271        C272   1.373       .  A
N271        C599   1.465       .  S
C272        C273   1.380       .  A
C272        C529   1.480       .  S
C273        C544   1.351       .  A
C273        H276   1.083       .  S
C274        C275   1.381       .  A
C274        H277   1.083       .  S
C275        C520   1.468       .  S
N278        C552   1.354       .  A
N278        C279   1.349       .  A
N278        C322   1.440       .  S
C279        C280   1.380       .  A
C279        C508   1.454       .  S
C280        C551   1.370       .  A
C280        H283   1.083       .  S
C281        C282   1.383       .  A
C281        H284   1.083       .  S
C282        C493   1.466       .  S
N285        C286   1.374       .  A
N285        C318   1.457       .  S
C286        C287   1.381       .  A
C286        C472   1.492       .  S
C287        H290   1.083       .  S
C288        C557   1.359       .  A
C288        C289   1.384       .  A
C288        H291   1.083       .  S
C289        N555   1.375       .  A
C289        C481   1.505       .  S
N292        C566   1.357       .  A
N292        C293   1.355       .  A
N292        C356   1.433       .  S
C293        C294   1.386       .  A
C293        C457   1.485       .  S
C294        C565   1.367       .  A
C294        H297   1.081       .  S
C295        C296   1.379       .  A
C295        H298   1.083       .  S
C296        C445   1.476       .  S
N299        C573   1.361       .  A
N299        C300   1.361       .  A
N299        C624   1.441       .  S
C300        C301   1.380       .  A
C300        C433   1.484       .  S
C301        C572   1.365       .  A
C301        H304   1.081       .  S
C302        C303   1.379       .  A
C302        H305   1.073       .  S
C303        C421   1.492       .  S
N306        C310   1.358       .  A
N306        C577   1.359       .  A
N306        C330   1.437       .  S
C307        C308   1.369       .  A
C307        C397   1.479       .  S
C308        H311   1.080       .  S
C309        C578   1.364       .  A
C309        C310   1.389       .  A
C309        H312   1.077       .  S
C310        C412   1.486       .  S
O313       Mg315   2.146       .  S
O313       Mg591   2.146       .  S
O313        C348   1.231       .  S
C314       H1163   1.081   1_545  S
C314       O1137   1.237   1_545  S
C314        O351   1.271       .  A
Mg315      O2234   2.148       .  S
Mg315       O629   2.267       .  S
Mg315      O1975   2.269       .  S
Mg315      O1946   2.307       .  S
O316      Mg2248   2.168       .  S
O316       Mg341   2.170       .  S
O316       C1957   1.235       .  S
O317        C348   1.265       .  A
O317      Mg1151   2.289       .  S
C318        O320   1.275       .  A
C318        O332   1.281       .  A
O319        C347   1.274       .  A
O319       Mg321   2.326       .  S
O320       Mg352   2.308       .  S
Mg321       O327   2.179       .  S
Mg321       O335   2.321       .  S
C322        O360   1.271       .  A
C322        O328   1.278       .  A
O323        C330   1.273       .  A
O323       Mg591   2.310       .  S
H324       C1957   1.081       .  S
C325        H350   1.081       .  S
C325        O339   1.232       .  S
C325        O340   1.267       .  A
O326       C1159   1.273       .  A
O326      Mg1935   2.307       .  S
O327       Mg881   2.196       .  S
O327       C1124   1.237       .  S
O328       Mg628   2.329   1_455  S
C329        O342   1.282       .  A
C329        O334   1.273       .  A
C330        O357   1.277       .  A
Mg331       O338   2.156       .  S
Mg331       O609   2.175       .  S
Mg331       O602   2.354       .  S
Mg331       O333   2.319       .  S
Mg331       O360   2.265       .  S
O333        C337   1.272       .  A
O335        C354   1.272       .  A
O336        C356   1.275       .  A
O336      Mg1432   2.297       .  S
C337       H1944   1.081   1_455  S
C337       O1936   1.235   1_455  S
O338       Mg622   2.187       .  S
O338        C349   1.238       .  S
O339       Mg358   2.203   1_455  S
O340       Mg352   2.302       .  S
Mg341      O1407   2.196   1_545  S
Mg341      O1127   2.289   1_545  S
Mg341       O604   2.314       .  S
Mg341      O1167   2.279   1_545  S
O342      Mg1978   2.378       .  S
H343        C348   1.081       .  S
O344      Mg1665   2.148       .  S
O344      Mg1162   2.164       .  S
O344       C1967   1.236   1_455  S
H345       C1967   1.081   1_455  S
H346        C349   1.081       .  S
C347       H1965   1.081       .  S
C347       O1964   1.236       .  S
C349       O1136   1.273   1_545  A
O351      Mg1978   2.302       .  S
Mg352      O1154   2.164   1_545  S
Mg352       O876   2.297   1_545  S
H353       C1124   1.081       .  S
C354        O359   1.271       .  A
O355        C356   1.265       .  A
O355      Mg1935   2.269       .  S
O357      Mg1151   2.279       .  S
Mg358      O1666   2.168       .  S
Mg358      O1962   2.378       .  S
Mg358      O1971   2.302       .  S
C361       C1982   1.516   1_455  S
C361       C1987   1.536   1_455  S
C361        C365   1.542       .  S
C361        C505   1.519       .  S
C362       C1981   1.516       .  S
C362        H369   1.086       .  S
C362        C363   1.359       .  D
C363        C364   1.556       .  S
C363        C517   1.483       .  S
C364        C368   1.545       .  S
C364       C1986   1.546       .  S
C364        H370   1.105       .  S
C365        H371   1.083       .  S
C365        C366   1.363       .  D
C366       C1984   1.546   1_455  S
C366        C448   1.484       .  S
C367       C1981   1.536       .  S
C367        H372   1.086       .  S
C367        C368   1.359       .  D
C368        C436   1.485       .  S
C373       C1184   1.530       .  S
C373       C1189   1.544       .  S
C373        C377   1.549       .  S
C373        C400   1.535       .  S
C374       C1183   1.530       .  S
C374        H381   1.087       .  S
C374        C375   1.360       .  D
C375        C376   1.551       .  S
C375        C532   1.501   1_565  S
C376        C380   1.536       .  S
C376       C1188   1.546       .  S
C376        H382   1.099       .  S
C377        H383   1.078       .  S
C377        C378   1.373       .  D
C378       C1186   1.546       .  S
C378        C460   1.489       .  S
C379       C1183   1.544       .  S
C379        H384   1.087       .  S
C379        C380   1.364       .  D
C380        C469   1.509   1_565  S
C385        C386   1.542       .  S
C385        C391   1.537       .  S
C385        C389   1.540       .  S
C385        C496   1.543       .  S
C386        H393   1.083       .  S
C386        C387   1.380       .  D
C387        C388   1.563       .  S
C387        C484   1.517       .  S
C388        C392   1.536       .  S
C388        C390   1.526       .  S
C388        H394   1.106       .  S
C389        H395   1.087       .  S
C389        C390   1.364       .  D
C390        C409   1.481       .  S
C391        H396   1.083       .  S
C391        C392   1.351       .  D
C392        C424   1.477       .  S
C397        C398   1.408       .  A
C397        C402   1.405       .  A
C398        C399   1.409       .  A
C398        H407   1.084       .  S
C399        C400   1.417       .  A
C399        S403   1.798       .  S
C400        C401   1.405       .  A
C401        C402   1.385       .  A
C401       H1218   1.085       .  S
C402       S1214   1.782       .  S
S403        H406   1.408       .  S
S404       C1212   1.782   1_545  S
S404        H945   1.397   1_545  S
H405       S1484   1.397       .  S
H408       C1211   1.085       .  S
C409        C410   1.407       .  A
C409        C414   1.405       .  A
C410        C411   1.405       .  A
C410        H419   1.082       .  S
C411        C412   1.411       .  A
C411        S415   1.801       .  S
C412        C413   1.408       .  A
C413        C414   1.387       .  A
C413        H420   1.083       .  S
C414        S416   1.797       .  S
S415        H418   1.406       .  S
S416        H417   1.406       .  S
C421        C422   1.399       .  A
C421        C426   1.424       .  A
C422        C423   1.396       .  A
C422        H431   1.079       .  S
C423        C424   1.419       .  A
C423        S427   1.800       .  S
C424        C425   1.393       .  A
C425        C426   1.397       .  A
C425        H432   1.085       .  S
C426        S428   1.794       .  S
S427        H430   1.405       .  S
H429        S698   1.406       .  S
C433        C434   1.405       .  A
C433        C438   1.408       .  A
C434        C435   1.402       .  A
C434        H443   1.084       .  S
C435        C436   1.412       .  A
C435        S439   1.801       .  S
C436        C437   1.401       .  A
C437        C438   1.405       .  A
C437       H2064   1.076       .  S
C438       S2060   1.799       .  S
S439        H442   1.408       .  S
S440       C2058   1.799       .  S
S440       H2061   1.407   1_655  S
H441       S2060   1.407       .  S
H444       C2057   1.076       .  S
C445        C446   1.402       .  A
C445        C450   1.411       .  A
C446        C447   1.399       .  A
C446        H455   1.084       .  S
C447        C448   1.409       .  A
C447       S2071   1.803       .  S
C448        C449   1.406       .  A
C449        C450   1.404       .  A
C449        H456   1.079       .  S
C450        S452   1.805       .  S
S451       C2067   1.803       .  S
S451        H454   1.407       .  S
S452        H453   1.404       .  S
C457        C458   1.407       .  A
C457        C462   1.410       .  A
C458        C459   1.399       .  A
C458        H467   1.084       .  S
C459        C460   1.415       .  A
C459        S463   1.802       .  S
C460        C461   1.405       .  A
C461        C462   1.397       .  A
C461       H1278   1.085       .  S
C462        S464   1.792       .  S
S463        H466   1.393       .  S
S464        H465   1.396       .  S
H468       C1271   1.085       .  S
C469        C470   1.410       .  A
C469        C474   1.419       .  A
C470        C471   1.397       .  A
C470       H1289   1.082   1_545  S
C471        C472   1.411       .  A
C471        S475   1.794       .  S
C472        C473   1.412       .  A
C473        C474   1.408       .  A
C473        H480   1.084       .  S
C474        S476   1.803       .  S
S476        H477   1.406       .  S
H478        S745   1.407       .  S
H479       C1280   1.082       .  S
C481        C482   1.404       .  A
C481        C486   1.415       .  A
C482        C483   1.404       .  A
C482        H491   1.082       .  S
C483        C484   1.421       .  A
C483        S487   1.807       .  S
C484        C485   1.414       .  A
C485        C486   1.414       .  A
C485        H492   1.082       .  S
C486        S488   1.802       .  S
S487        H490   1.407       .  S
S488        H489   1.407       .  S
C493        C494   1.398       .  A
C493        C498   1.396       .  A
C494        C495   1.410       .  A
C494        H503   1.083       .  S
C495        C496   1.428       .  A
C495        S499   1.808       .  S
C496        C497   1.418       .  A
C497        C498   1.387       .  A
C497        H504   1.075       .  S
C498        S500   1.803       .  S
S499        H502   1.407       .  S
H501        S770   1.404       .  S
C505        C506   1.408       .  A
C505        C510   1.417       .  A
C506        C507   1.387       .  A
C506        H515   1.082   1_455  S
C507        C508   1.398       .  A
C507        S781   1.795       .  S
C508        C509   1.396       .  A
C509        C510   1.394       .  A
C509        H516   1.075       .  S
C510        S512   1.805       .  S
S511        H514   1.401       .  S
S512        H513   1.406       .  S
C517        C518   1.394       .  A
C517        C522   1.417       .  A
C518        C519   1.391       .  A
C518       H2147   1.077       .  S
C519        C520   1.417       .  A
C520        C521   1.399       .  A
C521        C522   1.400       .  A
C521        H528   1.084       .  S
C522        S524   1.801       .  S
S523        C789   1.810       .  S
S523        H526   1.402       .  S
S524        H525   1.405       .  S
H527       C2138   1.077       .  S
C529        C530   1.406       .  A
C529        C534   1.409       .  A
C530        C531   1.399       .  A
C530        H539   1.084       .  S
C531        C532   1.413       .  A
C531        S535   1.802   1_545  S
C532        C533   1.414       .  A
C533        C534   1.403       .  A
C533        H540   1.083       .  S
C534        S536   1.804       .  S
S535        H538   1.406       .  S
S536        H537   1.404       .  S
N541        C542   1.373       .  A
C542        C543   1.380       .  A
C542        C799   1.479       .  S
C543        H546   1.083       .  S
C544        C545   1.381       .  A
C544        H547   1.083       .  S
C545        C790   1.468       .  S
N548        C549   1.349       .  A
N548        C592   1.440       .  S
C549        C550   1.380       .  A
C549        C778   1.454       .  S
C550        H553   1.083       .  S
C551        C552   1.383       .  A
C551        H554   1.082       .  S
C552        C763   1.466       .  S
N555        C556   1.374       .  A
N555        C588   1.457       .  S
C556        C557   1.381       .  A
C556        C742   1.492       .  S
C557        H560   1.083       .  S
C558        C559   1.384       .  A
C558        H561   1.083       .  S
C559        C751   1.505   1_554  S
N562        C563   1.355   1_554  A
N562        C626   1.433       .  S
C563        C564   1.386   1_556  A
C563        C727   1.485       .  S
C564        H567   1.081       .  S
C565        C566   1.379       .  A
C565        H568   1.083       .  S
C566        C715   1.476       .  S
N569        C570   1.361   1_554  A
C570        C571   1.380   1_556  A
C570        C703   1.484       .  S
C571        H574   1.081   1_554  S
C572        C573   1.379       .  A
C572        H575   1.073       .  S
C573        C691   1.492       .  S
N576        C580   1.358       .  A
N576        C600   1.437       .  S
C577        C578   1.369       .  A
C577        C667   1.479       .  S
C578        H581   1.080       .  S
C579        C580   1.389       .  A
C579        H582   1.077       .  S
C580        C682   1.486       .  S
O583       Mg585   2.146       .  S
O583        C618   1.231       .  S
C584       H1433   1.081   1_545  S
C584       O1407   1.237   1_545  S
C584        O621   1.271       .  A
Mg585      O1694   2.148   1_556  S
Mg585      O2245   2.269       .  S
Mg585      O2216   2.307       .  S
O586      Mg1708   2.168   1_556  S
O586       Mg611   2.170       .  S
O586       C2227   1.235       .  S
O587        C618   1.265       .  A
O587      Mg1421   2.289       .  S
C588        O590   1.275       .  A
C588        O602   1.281       .  A
O589        C617   1.274       .  A
O589       Mg591   2.326       .  S
O590       Mg622   2.308       .  S
Mg591       O597   2.179       .  S
Mg591       O605   2.321       .  S
C592        O630   1.271       .  A
C592        O598   1.278       .  A
O593        C600   1.273       .  A
H594       C2227   1.081       .  S
C595        H620   1.081       .  S
C595        O609   1.232       .  S
C595        O610   1.267       .  A
O596       C1429   1.273       .  A
O596      Mg2205   2.307       .  S
O597      Mg1151   2.196       .  S
O597       C1394   1.236       .  S
C599        O612   1.282       .  A
C599        O604   1.273       .  A
C600        O627   1.277       .  A
Mg601       O608   2.156       .  S
Mg601       O603   2.319       .  S
Mg601       O630   2.265       .  S
O603        C607   1.272       .  A
O605        C624   1.272       .  A
O606        C626   1.275       .  A
O606       Mg892   2.297       .  S
C607       H2214   1.081   1_455  S
C607       O2206   1.235   1_455  S
O608        C619   1.238       .  S
O609       Mg628   2.203   1_455  S
O610       Mg622   2.302       .  S
Mg611       O867   2.196   1_546  S
Mg611      O1397   2.289   1_545  S
Mg611      O1437   2.279   1_545  S
O612      Mg2248   2.378       .  S
H613        C618   1.081       .  S
O614      Mg1935   2.148       .  S
O614      Mg1432   2.164       .  S
O614       C2237   1.236   1_455  S
H615       C2237   1.081   1_455  S
H616        C619   1.081       .  S
C617       H2235   1.081       .  S
C617       O2234   1.236       .  S
C619       O1406   1.273   1_545  A
O621      Mg2248   2.302       .  S
Mg622      O1424   2.164   1_545  S
Mg622      O1146   2.297   1_545  S
H623       C1394   1.081       .  S
C624        O629   1.271       .  A
O625        C626   1.265   1_556  A
O625      Mg2205   2.269       .  S
O627      Mg1421   2.279       .  S
Mg628      O1936   2.168       .  S
Mg628      O2232   2.378       .  S
Mg628      O2241   2.302       .  S
C631       C2252   1.516   1_455  S
C631       C2257   1.536   1_455  S
C631        C635   1.542       .  S
C631        C775   1.519       .  S
C632       C2251   1.516       .  S
C632        H639   1.086       .  S
C632        C633   1.359       .  D
C633        C634   1.556       .  S
C633        C787   1.483       .  S
C634        C638   1.545       .  S
C634       C2256   1.546       .  S
C634        H640   1.105       .  S
C635        H641   1.083       .  S
C635        C636   1.363       .  D
C636       C2254   1.546   1_455  S
C636        C718   1.484       .  S
C637       C2251   1.536       .  S
C637        H642   1.086       .  S
C637        C638   1.359       .  D
C638        C706   1.485       .  S
C643       C1454   1.530       .  S
C643       C1459   1.544       .  S
C643        C647   1.549       .  S
C643        C670   1.535       .  S
C644       C1453   1.530       .  S
C644        H651   1.087       .  S
C644        C645   1.360       .  D
C645        C646   1.551       .  S
C645        C802   1.501   1_565  S
C646        C650   1.536       .  S
C646       C1458   1.546       .  S
C646        H652   1.099       .  S
C647        H653   1.078       .  S
C647        C648   1.373       .  D
C648       C1456   1.546       .  S
C648        C730   1.489       .  S
C649       C1453   1.544       .  S
C649        H654   1.087       .  S
C649        C650   1.364       .  D
C650        C739   1.509   1_565  S
C655        C656   1.542       .  S
C655        C661   1.537       .  S
C655        C659   1.540       .  S
C655        C766   1.543       .  S
C656        H663   1.083       .  S
C656        C657   1.380       .  D
C657        C658   1.563       .  S
C657        C754   1.517       .  S
C658        C662   1.536       .  S
C658        C660   1.526       .  S
C658        H664   1.106       .  S
C659        H665   1.087       .  S
C659        C660   1.364       .  D
C660        C679   1.481       .  S
C661        H666   1.083       .  S
C661        C662   1.351       .  D
C662        C694   1.477       .  S
C667        C668   1.408       .  A
C667        C672   1.405       .  A
C668        C669   1.409       .  A
C668        H677   1.084       .  S
C669        C670   1.417       .  A
C669        S673   1.798       .  S
C670        C671   1.405       .  A
C671        C672   1.385       .  A
C671       H1488   1.085       .  S
C672       S1484   1.782       .  S
S673        H676   1.408       .  S
S674       C1482   1.782   1_545  S
S674       H1215   1.397   1_545  S
H675        S944   1.397   1_556  S
H678       C1481   1.085       .  S
C679        C680   1.407       .  A
C679        C684   1.405       .  A
C680        C681   1.405       .  A
C680        H689   1.082       .  S
C681        C682   1.411       .  A
C681        S685   1.801       .  S
C682        C683   1.408       .  A
C683        C684   1.387       .  A
C683        H690   1.083       .  S
C684        S686   1.797       .  S
S685        H688   1.406       .  S
S686        H687   1.406       .  S
C691        C692   1.399       .  A
C691        C696   1.424       .  A
C692        C693   1.396       .  A
C692        H701   1.079       .  S
C693        C694   1.419       .  A
C693        S697   1.800       .  S
C694        C695   1.393       .  A
C695        C696   1.397       .  A
C695        H702   1.085       .  S
C696        S698   1.794       .  S
S697        H700   1.405       .  S
C703        C704   1.405       .  A
C703        C708   1.408       .  A
C704        C705   1.402       .  A
C704        H713   1.084       .  S
C705        C706   1.412       .  A
C705        S709   1.801       .  S
C706        C707   1.401       .  A
C707        C708   1.405       .  A
C707       H2334   1.076       .  S
C708       S2330   1.799       .  S
S709        H712   1.408       .  S
S710       C2328   1.799       .  S
S710       H2331   1.407   1_655  S
H711       S2330   1.407       .  S
H714       C2327   1.076       .  S
C715        C716   1.402       .  A
C715        C720   1.411       .  A
C716        C717   1.399       .  A
C716        H725   1.084       .  S
C717        C718   1.409       .  A
C717       S2341   1.803       .  S
C718        C719   1.406       .  A
C719        C720   1.404       .  A
C719        H726   1.079       .  S
C720        S722   1.805       .  S
S721       C2337   1.803       .  S
S721        H724   1.407       .  S
S722        H723   1.404       .  S
C727        C728   1.407       .  A
C727        C732   1.410       .  A
C728        C729   1.399       .  A
C728        H737   1.084       .  S
C729        C730   1.415       .  A
C729        S733   1.802       .  S
C730        C731   1.405       .  A
C731        C732   1.397       .  A
C731       H1548   1.085       .  S
C732        S734   1.792       .  S
S733        H736   1.393       .  S
S734        H735   1.396       .  S
H738       C1541   1.085       .  S
C739        C740   1.410       .  A
C739        C744   1.419       .  A
C740        C741   1.397       .  A
C740       H1559   1.082   1_545  S
C741        C742   1.411       .  A
C741        S745   1.794       .  S
C742        C743   1.412       .  A
C743        C744   1.408       .  A
C743        H750   1.085       .  S
C744        S746   1.803       .  S
S746        H747   1.406       .  S
H749       C1550   1.082       .  S
C751        C752   1.404       .  A
C751        C756   1.415       .  A
C752        C753   1.404       .  A
C752        H761   1.082       .  S
C753        C754   1.421       .  A
C753        S757   1.807       .  S
C754        C755   1.414       .  A
C755        C756   1.414       .  A
C755        H762   1.082       .  S
C756        S758   1.802       .  S
S757        H760   1.407       .  S
S758        H759   1.407       .  S
C763        C764   1.398       .  A
C763        C768   1.396       .  A
C764        C765   1.410       .  A
C764        H773   1.083       .  S
C765        C766   1.428       .  A
C765        S769   1.808       .  S
C766        C767   1.418       .  A
C767        C768   1.387       .  A
C767        H774   1.075       .  S
C768        S770   1.803       .  S
S769        H772   1.407       .  S
C775        C776   1.408       .  A
C775        C780   1.417       .  A
C776        C777   1.387       .  A
C776        H785   1.082   1_455  S
C777        C778   1.398       .  A
C778        C779   1.396       .  A
C779        C780   1.394       .  A
C779        H786   1.075       .  S
C780        S782   1.805       .  S
S781        H784   1.401       .  S
S782        H783   1.406       .  S
C787        C788   1.394       .  A
C787        C792   1.417       .  A
C788        C789   1.391       .  A
C788       H2417   1.077       .  S
C789        C790   1.417       .  A
C790        C791   1.399       .  A
C791        C792   1.400       .  A
C791        H798   1.084       .  S
C792        S794   1.801       .  S
S793        H796   1.402       .  S
S794        H795   1.405       .  S
H797       C2408   1.077       .  S
C799        C800   1.406       .  A
C799        C804   1.409       .  A
C800        C801   1.399       .  A
C800        H809   1.084       .  S
C801        C802   1.413       .  A
C801        S805   1.802   1_545  S
C802        C803   1.414       .  A
C803        C804   1.403       .  A
C803        H810   1.083       .  S
C804        S806   1.804       .  S
S805        H808   1.406       .  S
S806        H807   1.404       .  S
N811       C1085   1.369       .  A
N811        C812   1.373       .  A
N811       C1139   1.465       .  S
C812        C813   1.380       .  A
C812       C1069   1.479       .  S
C813       C1084   1.351       .  A
C813        H816   1.083       .  S
C814       C1353   1.351       .  A
C814        C815   1.381   1_556  A
C814        H817   1.083   1_556  S
C815       N1351   1.369   1_554  A
C815       C1060   1.468       .  S
N818       C1092   1.354       .  A
N818        C819   1.349       .  A
N818        C862   1.440       .  S
C819        C820   1.380       .  A
C819       C1048   1.454       .  S
C820       C1091   1.370       .  A
C820        H823   1.083       .  S
C821       C1360   1.370   1_554  A
C821        C822   1.383       .  A
C821        H824   1.083       .  S
C822       N1358   1.354   1_554  A
C822       C1033   1.466       .  S
N825       C1369   1.375       .  A
N825        C826   1.374       .  A
N825        C858   1.457       .  S
C826        C827   1.381       .  A
C826       C1012   1.492       .  S
C827       C1368   1.359       .  A
C827        H830   1.083       .  S
C828       C1097   1.359       .  A
C828        C829   1.384       .  A
C828        H831   1.083       .  S
C829       N1095   1.375       .  A
C829       C1021   1.505       .  S
N832       C1106   1.357       .  A
N832        C833   1.355       .  A
N832        C896   1.433       .  S
C833        C834   1.386       .  A
C833        C997   1.485       .  S
C834       C1105   1.367       .  A
C834        H837   1.081       .  S
C835       C1374   1.367       .  A
C835        C836   1.379       .  A
C835        H838   1.083       .  S
C836       N1372   1.357       .  A
C836        C985   1.476       .  S
N839       C1113   1.361       .  A
N839        C840   1.361       .  A
N839       C1164   1.441       .  S
C840        C841   1.380       .  A
C840        C973   1.484       .  S
C841       C1112   1.365       .  A
C841        H844   1.081       .  S
C842       C1381   1.365       .  A
C842        C843   1.379       .  A
C842        H845   1.073       .  S
C843       N1379   1.361       .  A
C843        C961   1.492       .  S
N846        C850   1.358       .  A
N846       C1117   1.359       .  A
N846        C870   1.437       .  S
C847       N1386   1.359       .  A
C847        C848   1.369       .  A
C847        C937   1.479   1_556  S
C848       C1389   1.364       .  A
C848        H851   1.080       .  S
C849       C1118   1.364       .  A
C849        C850   1.389       .  A
C849        H852   1.077       .  S
C850        C952   1.486       .  S
O853       Mg855   2.146       .  S
O853      Mg1131   2.146       .  S
O853        C888   1.231       .  S
C854        O891   1.271       .  A
Mg855      O2774   2.148       .  S
Mg855      O1169   2.267       .  S
Mg855      O2515   2.269       .  S
Mg855      O2486   2.307       .  S
O856      Mg2788   2.168       .  S
O856       Mg881   2.170       .  S
O856       C2497   1.235       .  S
O857        C888   1.265       .  A
C858        O860   1.275       .  A
C858        O872   1.281       .  A
O859        C887   1.274       .  A
O859       Mg861   2.326       .  S
O860       Mg892   2.308       .  S
Mg861      O1393   2.146   1_554  S
Mg861       O867   2.179       .  S
Mg861       O875   2.321       .  S
Mg861      O1403   2.310   1_554  S
C862        O900   1.271       .  A
C862        O868   1.278       .  A
O863        C870   1.273       .  A
O863      Mg1131   2.310       .  S
H864       C2497   1.081       .  S
C865        H890   1.081       .  S
C865        O879   1.232       .  S
C865        O880   1.267       .  A
O866      Mg2475   2.307       .  S
O868      Mg1168   2.329   1_455  S
C869       N1351   1.465       .  S
C869        O882   1.282   1_556  A
C869        O874   1.273       .  A
C870        O897   1.277       .  A
Mg871       O878   2.156       .  S
Mg871      O1149   2.175       .  S
Mg871      O1142   2.354       .  S
Mg871       O873   2.319       .  S
Mg871       O900   2.265       .  S
O872      Mg1411   2.354   1_554  S
O873        C877   1.272       .  A
O874      Mg1421   2.314       .  S
O875        C894   1.272       .  A
O876        C896   1.275       .  A
C877       H2484   1.081   1_455  S
C877       O2476   1.235   1_455  S
O878      Mg1162   2.187       .  S
O878        C889   1.238       .  S
O879      Mg1411   2.175   1_554  S
O879       Mg898   2.203   1_455  S
O880       Mg892   2.302       .  S
Mg881      O1144   2.314       .  S
O882      Mg2518   2.378       .  S
H883        C888   1.081       .  S
O884      Mg3015   2.148   1_554  S
O884       C2507   1.236   1_455  S
H885       C2507   1.081   1_455  S
H886        C889   1.081       .  S
C887       H2505   1.081       .  S
C887       O2504   1.236       .  S
O891      Mg2518   2.302       .  S
Mg892      O1418   2.187   1_554  S
C894       N1379   1.441       .  S
C894        O899   1.271       .  A
O895        C896   1.265       .  A
O895      Mg2475   2.269       .  S
Mg898      O3016   2.168   1_554  S
Mg898      O1408   2.329   1_654  S
Mg898      O2502   2.378       .  S
Mg898      O2511   2.302       .  S
O899      Mg1395   2.267   1_554  S
C901       C2522   1.516   1_455  S
C901       C2527   1.536   1_455  S
C901        C905   1.542       .  S
C901       C1045   1.519       .  S
C902       C2521   1.516       .  S
C902        H909   1.086       .  S
C902        C903   1.359       .  D
C903        C904   1.556       .  S
C903       C1057   1.483       .  S
C904        C908   1.545       .  S
C904       C2526   1.546       .  S
C904        H910   1.105       .  S
C905        H911   1.083       .  S
C905        C906   1.363       .  D
C906       C2524   1.546   1_455  S
C906        C988   1.484       .  S
C907       C2521   1.536       .  S
C907        H912   1.086       .  S
C907        C908   1.359       .  D
C908        C976   1.485       .  S
C913        C917   1.549       .  S
C913        C940   1.535       .  S
C914        H921   1.087       .  S
C914        C915   1.360       .  D
C915        C916   1.551       .  S
C915       C1072   1.501       .  S
C916        C920   1.536       .  S
C916        H922   1.099       .  S
C917        H923   1.078       .  S
C917        C918   1.373       .  D
C918       C1000   1.489       .  S
C919        H924   1.087       .  S
C919        C920   1.364       .  D
C920       C1009   1.509       .  S
C925        C926   1.542       .  S
C925        C931   1.537       .  S
C925        C929   1.540       .  S
C925       C1036   1.543       .  S
C926        H933   1.083       .  S
C926        C927   1.380       .  D
C927        C928   1.563       .  S
C927       C1024   1.517       .  S
C928        C932   1.536       .  S
C928        C930   1.526       .  S
C928        H934   1.106       .  S
C929        H935   1.087       .  S
C929        C930   1.364       .  D
C930        C949   1.481       .  S
C931        H936   1.083       .  S
C931        C932   1.351       .  D
C932        C964   1.477       .  S
C937        C938   1.408       .  A
C937        C942   1.405       .  A
C938        C939   1.409       .  A
C938        H947   1.084       .  S
C939        C940   1.417       .  A
C939        S943   1.798       .  S
C940        C941   1.405       .  A
C941        C942   1.385       .  A
S943        H946   1.408       .  S
C949        C950   1.407       .  A
C949        C954   1.405       .  A
C950        C951   1.405       .  A
C950        H959   1.082       .  S
C951        C952   1.411       .  A
C951        S955   1.801       .  S
C952        C953   1.408       .  A
C953        C954   1.387       .  A
C953        H960   1.083       .  S
C954        S956   1.797       .  S
S955        H958   1.406       .  S
S956        H957   1.406       .  S
C961        C962   1.399       .  A
C961        C966   1.424       .  A
C962        C963   1.396       .  A
C962        H971   1.079       .  S
C963        C964   1.419       .  A
C963        S967   1.800       .  S
C964        C965   1.393       .  A
C965        C966   1.397       .  A
C965        H972   1.085       .  S
C966        S968   1.794       .  S
S967        H970   1.405       .  S
S968       H1509   1.406       .  S
H969       S1238   1.406       .  S
C973        C974   1.405       .  A
C973        C978   1.408       .  A
C974        C975   1.402       .  A
C974        H983   1.084       .  S
C975        C976   1.412       .  A
C975        S979   1.801       .  S
C976        C977   1.401       .  A
C977        C978   1.405       .  A
C977       H2604   1.076       .  S
C978       S2600   1.799       .  S
S979        H982   1.408       .  S
S980       C2598   1.799       .  S
S980       H2601   1.407   1_655  S
H981       S2600   1.407       .  S
H984       C2597   1.076       .  S
C985        C986   1.402       .  A
C985        C990   1.411       .  A
C986        C987   1.399       .  A
C986        H995   1.084       .  S
C987        C988   1.409       .  A
C987       S2611   1.803       .  S
C988        C989   1.406       .  A
C989        C990   1.404       .  A
C989        H996   1.079       .  S
C990        S992   1.805       .  S
S991       C2607   1.803       .  S
S991        H994   1.407       .  S
S992        H993   1.404       .  S
C997        C998   1.407       .  A
C997       C1002   1.410       .  A
C998        C999   1.399       .  A
C998       H1007   1.084       .  S
C999       C1000   1.415       .  A
C999       S1003   1.802       .  S
C1000      C1001   1.405       .  A
C1001      C1002   1.397       .  A
C1002      S1004   1.792       .  S
S1003      H1006   1.393       .  S
S1004      H1005   1.396       .  S
C1009      C1010   1.410       .  A
C1009      C1014   1.419       .  A
C1010      C1011   1.397       .  A
C1011      C1012   1.411       .  A
C1011      S1015   1.794       .  S
C1012      C1013   1.412       .  A
C1013      C1014   1.408       .  A
C1013      H1020   1.084       .  S
C1014      S1016   1.803       .  S
S1015      H1558   1.407       .  S
S1016      H1017   1.406       .  S
H1018      S1285   1.407       .  S
C1021      C1022   1.404       .  A
C1021      C1026   1.415       .  A
C1022      C1023   1.404       .  A
C1022      H1031   1.082       .  S
C1023      C1024   1.421       .  A
C1023      S1027   1.807       .  S
C1024      C1025   1.414       .  A
C1025      C1026   1.414       .  A
C1025      H1032   1.082       .  S
C1026      S1028   1.802       .  S
S1027      H1030   1.407       .  S
S1028      H1029   1.407       .  S
C1033      C1034   1.398       .  A
C1033      C1038   1.396       .  A
C1034      C1035   1.410       .  A
C1034      H1043   1.083       .  S
C1035      C1036   1.428       .  A
C1035      S1039   1.808       .  S
C1036      C1037   1.418       .  A
C1037      C1038   1.387       .  A
C1037      H1044   1.075       .  S
C1038      S1040   1.803   1_554  S
S1039      H1042   1.407       .  S
S1040      H1581   1.404       .  S
H1041      S1310   1.404       .  S
C1045      C1046   1.408       .  A
C1045      C1050   1.417       .  A
C1046      C1047   1.387       .  A
C1046      H1055   1.082   1_455  S
C1047      C1048   1.398       .  A
C1047      S1321   1.795       .  S
C1048      C1049   1.396       .  A
C1049      C1050   1.394       .  A
C1049      H1056   1.075       .  S
C1050      S1052   1.805       .  S
S1051      C1587   1.795       .  S
S1051      H1054   1.401   1_556  S
S1052      H1053   1.406       .  S
C1057      C1058   1.394       .  A
C1057      C1062   1.417       .  A
C1058      C1059   1.391       .  A
C1058      H2687   1.077       .  S
C1059      C1060   1.417       .  A
C1059      S1603   1.810   1_554  S
C1060      C1061   1.399       .  A
C1061      C1062   1.400       .  A
C1061      H1068   1.084       .  S
C1062      S1064   1.801       .  S
S1063      C1329   1.810       .  S
S1063      H1066   1.402       .  S
S1064      H1065   1.405       .  S
H1067      C2678   1.077       .  S
C1069      C1070   1.406       .  A
C1069      C1074   1.409       .  A
C1070      C1071   1.399       .  A
C1070      H1079   1.084       .  S
C1071      C1072   1.413       .  A
C1071      S1075   1.802       .  S
C1072      C1073   1.414       .  A
C1073      C1074   1.403       .  A
C1073      H1080   1.083       .  S
C1074      S1076   1.804       .  S
S1075      H1078   1.406       .  S
S1076      H1077   1.404       .  S
N1081      C1355   1.369       .  A
N1081      C1082   1.373       .  A
N1081      C1409   1.465       .  S
C1082      C1083   1.380       .  A
C1082      C1339   1.480       .  S
C1083      C1354   1.351       .  A
C1083      H1086   1.083       .  S
C1084      C1085   1.381       .  A
C1084      H1087   1.083       .  S
C1085      C1330   1.468       .  S
N1088      C1362   1.354       .  A
N1088      C1089   1.349       .  A
N1088      C1132   1.440       .  S
C1089      C1090   1.380       .  A
C1089      C1318   1.454       .  S
C1090      C1361   1.370       .  A
C1090      H1093   1.083       .  S
C1091      C1092   1.383       .  A
C1091      H1094   1.083       .  S
C1092      C1303   1.466       .  S
N1095      C1096   1.374       .  A
N1095      C1128   1.457       .  S
C1096      C1097   1.381       .  A
C1096      C1282   1.492       .  S
C1097      H1100   1.083       .  S
C1098      C1367   1.359       .  A
C1098      C1099   1.384       .  A
C1098      H1101   1.083       .  S
C1099      N1365   1.375       .  A
C1099      C1291   1.505       .  S
N1102      C1376   1.357       .  A
N1102      C1103   1.355       .  A
N1102      C1166   1.433       .  S
C1103      C1104   1.386       .  A
C1103      C1267   1.485       .  S
C1104      C1375   1.367       .  A
C1104      H1107   1.081       .  S
C1105      C1106   1.379       .  A
C1105      H1108   1.083       .  S
C1106      C1255   1.476       .  S
N1109      C1383   1.361       .  A
N1109      C1110   1.361       .  A
N1109      C1434   1.441       .  S
C1110      C1111   1.380       .  A
C1110      C1243   1.484       .  S
C1111      C1382   1.365       .  A
C1111      H1114   1.081       .  S
C1112      C1113   1.379       .  A
C1112      H1115   1.073       .  S
C1113      C1231   1.492       .  S
N1116      C1120   1.358       .  A
N1116      C1387   1.359       .  A
N1116      C1140   1.437       .  S
C1117      C1118   1.369       .  A
C1117      C1207   1.479       .  S
C1118      H1121   1.080       .  S
C1119      C1388   1.364       .  A
C1119      C1120   1.389       .  A
C1119      H1122   1.077       .  S
C1120      C1222   1.486       .  S
O1123     Mg1125   2.146       .  S
O1123     Mg1401   2.146       .  S
O1123      C1158   1.231       .  S
C1124      O1161   1.271       .  A
Mg1125     O3044   2.148       .  S
Mg1125     O1439   2.267       .  S
Mg1125     O2785   2.269       .  S
Mg1125     O2756   2.307       .  S
O1126     Mg3058   2.168       .  S
O1126     Mg1151   2.170       .  S
O1126      C2767   1.235       .  S
O1127      C1158   1.265       .  A
C1128      O1130   1.275       .  A
C1128      O1142   1.281       .  A
O1129      C1157   1.274       .  A
O1129     Mg1131   2.326       .  S
O1130     Mg1162   2.308       .  S
Mg1131     O1137   2.179       .  S
Mg1131     O1145   2.321       .  S
C1132      O1170   1.271       .  A
C1132      O1138   1.278       .  A
O1133      C1140   1.273       .  A
O1133     Mg1401   2.310       .  S
H1134      C2767   1.081       .  S
C1135      H1160   1.081       .  S
C1135      O1149   1.232       .  S
C1135      O1150   1.267       .  A
O1136     Mg2745   2.307       .  S
O1138     Mg1438   2.329   1_455  S
C1139      O1152   1.282       .  A
C1139      O1144   1.273       .  A
C1140      O1167   1.277       .  A
Mg1141     O1148   2.156       .  S
Mg1141     O1419   2.175       .  S
Mg1141     O1412   2.354       .  S
Mg1141     O1143   2.319       .  S
Mg1141     O1170   2.265       .  S
O1143      C1147   1.272       .  A
O1145      C1164   1.272       .  A
O1146      C1166   1.275       .  A
C1147      H2754   1.081   1_455  S
C1147      O2746   1.235   1_455  S
O1148     Mg1432   2.187       .  S
O1148      C1159   1.238       .  S
O1149     Mg1168   2.203   1_455  S
O1150     Mg1162   2.302       .  S
Mg1151     O1414   2.314       .  S
O1152     Mg2788   2.378       .  S
H1153      C1158   1.081       .  S
O1154     Mg2475   2.148       .  S
O1154      C2777   1.236   1_455  S
H1155      C2777   1.081   1_455  S
H1156      C1159   1.081       .  S
C1157      H2775   1.081       .  S
C1157      O2774   1.236       .  S
O1161     Mg2788   2.302       .  S
C1164      O1169   1.271       .  A
O1165      C1166   1.265       .  A
O1165     Mg2745   2.269       .  S
Mg1168     O2476   2.168       .  S
Mg1168     O2772   2.378       .  S
Mg1168     O2781   2.302       .  S
C1171      C2792   1.516   1_455  S
C1171      C2797   1.536   1_455  S
C1171      C1175   1.542       .  S
C1171      C1315   1.519       .  S
C1172      C2791   1.516       .  S
C1172      H1179   1.086       .  S
C1172      C1173   1.359       .  D
C1173      C1174   1.556       .  S
C1173      C1327   1.483       .  S
C1174      C1178   1.545       .  S
C1174      C2796   1.546       .  S
C1174      H1180   1.105       .  S
C1175      H1181   1.083       .  S
C1175      C1176   1.363       .  D
C1176      C2794   1.546   1_455  S
C1176      C1258   1.484       .  S
C1177      C2791   1.536       .  S
C1177      H1182   1.086       .  S
C1177      C1178   1.359       .  D
C1178      C1246   1.485       .  S
C1183      C1187   1.549       .  S
C1183      C1210   1.535       .  S
C1184      H1191   1.087       .  S
C1184      C1185   1.360       .  D
C1185      C1186   1.551       .  S
C1185      C1342   1.501       .  S
C1186      C1190   1.536       .  S
C1186      H1192   1.099       .  S
C1187      H1193   1.078       .  S
C1187      C1188   1.373       .  D
C1188      C1270   1.489       .  S
C1189      H1194   1.087       .  S
C1189      C1190   1.364       .  D
C1190      C1279   1.509       .  S
C1195      C1196   1.542       .  S
C1195      C1201   1.537       .  S
C1195      C1199   1.540       .  S
C1195      C1306   1.543       .  S
C1196      H1203   1.083       .  S
C1196      C1197   1.380       .  D
C1197      C1198   1.563       .  S
C1197      C1294   1.517       .  S
C1198      C1202   1.536       .  S
C1198      C1200   1.526       .  S
C1198      H1204   1.106       .  S
C1199      H1205   1.087       .  S
C1199      C1200   1.364       .  D
C1200      C1219   1.481       .  S
C1201      H1206   1.083       .  S
C1201      C1202   1.351       .  D
C1202      C1234   1.477       .  S
C1207      C1208   1.408       .  A
C1207      C1212   1.405       .  A
C1208      C1209   1.409       .  A
C1208      H1217   1.084       .  S
C1209      C1210   1.417       .  A
C1209      S1213   1.798       .  S
C1210      C1211   1.405       .  A
C1211      C1212   1.385       .  A
S1213      H1216   1.408       .  S
C1219      C1220   1.407       .  A
C1219      C1224   1.405       .  A
C1220      C1221   1.405       .  A
C1220      H1229   1.082       .  S
C1221      C1222   1.411       .  A
C1221      S1225   1.801       .  S
C1222      C1223   1.408       .  A
C1223      C1224   1.387       .  A
C1223      H1230   1.083       .  S
C1224      S1226   1.797       .  S
S1225      H1228   1.406       .  S
S1226      H1227   1.406       .  S
C1231      C1232   1.399       .  A
C1231      C1236   1.424       .  A
C1232      C1233   1.396       .  A
C1232      H1241   1.079       .  S
C1233      C1234   1.419       .  A
C1233      S1237   1.800       .  S
C1234      C1235   1.393       .  A
C1235      C1236   1.397       .  A
C1235      H1242   1.085       .  S
C1236      S1238   1.794       .  S
S1237      H1240   1.405       .  S
H1239      S1508   1.406       .  S
C1243      C1244   1.405       .  A
C1243      C1248   1.408       .  A
C1244      C1245   1.402       .  A
C1244      H1253   1.084       .  S
C1245      C1246   1.412       .  A
C1245      S1249   1.801       .  S
C1246      C1247   1.401       .  A
C1247      C1248   1.405       .  A
C1247      H2874   1.076       .  S
C1248      S2870   1.799       .  S
S1249      H1252   1.408       .  S
S1250      C2868   1.799       .  S
S1250      H2871   1.407   1_655  S
H1251      S2870   1.407       .  S
H1254      C2867   1.076       .  S
C1255      C1256   1.402       .  A
C1255      C1260   1.411       .  A
C1256      C1257   1.399       .  A
C1256      H1265   1.084       .  S
C1257      C1258   1.409       .  A
C1257      S2881   1.803       .  S
C1258      C1259   1.406       .  A
C1259      C1260   1.404       .  A
C1259      H1266   1.079       .  S
C1260      S1262   1.805       .  S
S1261      C2877   1.803       .  S
S1261      H1264   1.407       .  S
S1262      H1263   1.404       .  S
C1267      C1268   1.407       .  A
C1267      C1272   1.410       .  A
C1268      C1269   1.399       .  A
C1268      H1277   1.084       .  S
C1269      C1270   1.415       .  A
C1269      S1273   1.802       .  S
C1270      C1271   1.405       .  A
C1271      C1272   1.397       .  A
C1272      S1274   1.792       .  S
S1273      H1276   1.393       .  S
S1274      H1275   1.396       .  S
C1279      C1280   1.410       .  A
C1279      C1284   1.419       .  A
C1280      C1281   1.397       .  A
C1281      C1282   1.411       .  A
C1281      S1285   1.794       .  S
C1282      C1283   1.412       .  A
C1283      C1284   1.408       .  A
C1283      H1290   1.085       .  S
C1284      S1286   1.803       .  S
S1286      H1287   1.406       .  S
H1288      S1555   1.407       .  S
C1291      C1292   1.404       .  A
C1291      C1296   1.415       .  A
C1292      C1293   1.404       .  A
C1292      H1301   1.082       .  S
C1293      C1294   1.421       .  A
C1293      S1297   1.807       .  S
C1294      C1295   1.414       .  A
C1295      C1296   1.414       .  A
C1295      H1302   1.082       .  S
C1296      S1298   1.802       .  S
S1297      H1300   1.407       .  S
S1298      H1299   1.407       .  S
C1303      C1304   1.398       .  A
C1303      C1308   1.396       .  A
C1304      C1305   1.410       .  A
C1304      H1313   1.083       .  S
C1305      C1306   1.428       .  A
C1305      S1309   1.808       .  S
C1306      C1307   1.418       .  A
C1307      C1308   1.387       .  A
C1307      H1314   1.075       .  S
C1308      S1310   1.803       .  S
S1309      H1312   1.407       .  S
H1311      S1580   1.404       .  S
C1315      C1316   1.408       .  A
C1315      C1320   1.417       .  A
C1316      C1317   1.387       .  A
C1316      H1325   1.082   1_455  S
C1317      C1318   1.398       .  A
C1317      S1591   1.795       .  S
C1318      C1319   1.396       .  A
C1319      C1320   1.394       .  A
C1319      H1326   1.075       .  S
C1320      S1322   1.805       .  S
S1321      H1324   1.401       .  S
S1322      H1323   1.406       .  S
C1327      C1328   1.394       .  A
C1327      C1332   1.417       .  A
C1328      C1329   1.391       .  A
C1328      H2957   1.077       .  S
C1329      C1330   1.417       .  A
C1330      C1331   1.399       .  A
C1331      C1332   1.400       .  A
C1331      H1338   1.084       .  S
C1332      S1334   1.801       .  S
S1333      C1599   1.810       .  S
S1333      H1336   1.402       .  S
S1334      H1335   1.405       .  S
H1337      C2948   1.078       .  S
C1339      C1340   1.406       .  A
C1339      C1344   1.409       .  A
C1340      C1341   1.399       .  A
C1340      H1349   1.084       .  S
C1341      C1342   1.413       .  A
C1341      S1345   1.802       .  S
C1342      C1343   1.414       .  A
C1343      C1344   1.403       .  A
C1343      H1350   1.083       .  S
C1344      S1346   1.804       .  S
S1345      H1348   1.406       .  S
S1346      H1347   1.404       .  S
N1351      C1352   1.373       .  A
C1352      C1353   1.380       .  A
C1352      C1609   1.479       .  S
C1353      H1356   1.083       .  S
C1354      C1355   1.381       .  A
C1354      H1357   1.083       .  S
C1355      C1600   1.468       .  S
N1358      C1359   1.349       .  A
N1358      C1402   1.440       .  S
C1359      C1360   1.380       .  A
C1359      C1588   1.454       .  S
C1360      H1363   1.083       .  S
C1361      C1362   1.383       .  A
C1361      H1364   1.083       .  S
C1362      C1573   1.466       .  S
N1365      C1366   1.374       .  A
N1365      C1398   1.457       .  S
C1366      C1367   1.381       .  A
C1366      C1552   1.492       .  S
C1367      H1370   1.083       .  S
C1368      C1369   1.384       .  A
C1368      H1371   1.083       .  S
C1369      C1561   1.505   1_554  S
N1372      C1373   1.355   1_554  A
N1372      C1436   1.433       .  S
C1373      C1374   1.386   1_556  A
C1373      C1537   1.485       .  S
C1374      H1377   1.081       .  S
C1375      C1376   1.379       .  A
C1375      H1378   1.083       .  S
C1376      C1525   1.476       .  S
N1379      C1380   1.361   1_554  A
C1380      C1381   1.380   1_556  A
C1380      C1513   1.484       .  S
C1381      H1384   1.081   1_554  S
C1382      C1383   1.379       .  A
C1382      H1385   1.073       .  S
C1383      C1501   1.492       .  S
N1386      C1390   1.358       .  A
N1386      C1410   1.437       .  S
C1387      C1388   1.369       .  A
C1387      C1477   1.479       .  S
C1388      H1391   1.080       .  S
C1389      C1390   1.389       .  A
C1389      H1392   1.077       .  S
C1390      C1492   1.486       .  S
O1393     Mg1395   2.146       .  S
O1393      C1428   1.231       .  S
C1394      O1431   1.271       .  A
Mg1395     O2504   2.148   1_556  S
Mg1395     O3055   2.269       .  S
Mg1395     O3026   2.307       .  S
O1396     Mg2518   2.168   1_556  S
O1396     Mg1421   2.170       .  S
O1396      C3037   1.235       .  S
O1397      C1428   1.265       .  A
C1398      O1400   1.275       .  A
C1398      O1412   1.281       .  A
O1399      C1427   1.274       .  A
O1399     Mg1401   2.326       .  S
O1400     Mg1432   2.308       .  S
Mg1401     O1407   2.179       .  S
Mg1401     O1415   2.321       .  S
C1402      O1440   1.271       .  A
C1402      O1408   1.278       .  A
O1403      C1410   1.273       .  A
H1404      C3037   1.081       .  S
C1405      H1430   1.081       .  S
C1405      O1419   1.232       .  S
C1405      O1420   1.267       .  A
O1406     Mg3015   2.307       .  S
C1409      O1422   1.282       .  A
C1409      O1414   1.273       .  A
C1410      O1437   1.277       .  A
Mg1411     O1418   2.156       .  S
Mg1411     O1413   2.319       .  S
Mg1411     O1440   2.265       .  S
O1413      C1417   1.272       .  A
O1415      C1434   1.272       .  A
O1416      C1436   1.275       .  A
C1417      H3024   1.081   1_455  S
C1417      O3016   1.235   1_455  S
O1418      C1429   1.238       .  S
O1419     Mg1438   2.203   1_455  S
O1420     Mg1432   2.302       .  S
O1422     Mg3058   2.378       .  S
H1423      C1428   1.081       .  S
O1424     Mg2745   2.148       .  S
O1424      C3047   1.236   1_455  S
H1425      C3047   1.081   1_455  S
H1426      C1429   1.081       .  S
C1427      H3045   1.081       .  S
C1427      O3044   1.236       .  S
O1431     Mg3058   2.302       .  S
C1434      O1439   1.271       .  A
O1435      C1436   1.265   1_556  A
O1435     Mg3015   2.269       .  S
Mg1438     O2746   2.168       .  S
Mg1438     O3042   2.378       .  S
Mg1438     O3051   2.302       .  S
C1441      C3062   1.516   1_455  S
C1441      C3067   1.536   1_455  S
C1441      C1445   1.542       .  S
C1441      C1585   1.519       .  S
C1442      C3061   1.516       .  S
C1442      H1449   1.086       .  S
C1442      C1443   1.359       .  D
C1443      C1444   1.556       .  S
C1443      C1597   1.483       .  S
C1444      C1448   1.545       .  S
C1444      C3066   1.546       .  S
C1444      H1450   1.105       .  S
C1445      H1451   1.083       .  S
C1445      C1446   1.363       .  D
C1446      C3064   1.546   1_455  S
C1446      C1528   1.484       .  S
C1447      C3061   1.536       .  S
C1447      H1452   1.086       .  S
C1447      C1448   1.359       .  D
C1448      C1516   1.485       .  S
C1453      C1457   1.549       .  S
C1453      C1480   1.535       .  S
C1454      H1461   1.087       .  S
C1454      C1455   1.360       .  D
C1455      C1456   1.551       .  S
C1455      C1612   1.501       .  S
C1456      C1460   1.536       .  S
C1456      H1462   1.099       .  S
C1457      H1463   1.078       .  S
C1457      C1458   1.373       .  D
C1458      C1540   1.489       .  S
C1459      H1464   1.087       .  S
C1459      C1460   1.364       .  D
C1460      C1549   1.509       .  S
C1465      C1466   1.542       .  S
C1465      C1471   1.537       .  S
C1465      C1469   1.540       .  S
C1465      C1576   1.543       .  S
C1466      H1473   1.083       .  S
C1466      C1467   1.380       .  D
C1467      C1468   1.563       .  S
C1467      C1564   1.517       .  S
C1468      C1472   1.536       .  S
C1468      C1470   1.526       .  S
C1468      H1474   1.106       .  S
C1469      H1475   1.087       .  S
C1469      C1470   1.364       .  D
C1470      C1489   1.481       .  S
C1471      H1476   1.083       .  S
C1471      C1472   1.351       .  D
C1472      C1504   1.477       .  S
C1477      C1478   1.408       .  A
C1477      C1482   1.405       .  A
C1478      C1479   1.409       .  A
C1478      H1487   1.084       .  S
C1479      C1480   1.417       .  A
C1479      S1483   1.798       .  S
C1480      C1481   1.405       .  A
C1481      C1482   1.385       .  A
S1483      H1486   1.408       .  S
C1489      C1490   1.407       .  A
C1489      C1494   1.405       .  A
C1490      C1491   1.405       .  A
C1490      H1499   1.082       .  S
C1491      C1492   1.411       .  A
C1491      S1495   1.801       .  S
C1492      C1493   1.408       .  A
C1493      C1494   1.387       .  A
C1493      H1500   1.083       .  S
C1494      S1496   1.797       .  S
S1495      H1498   1.406       .  S
S1496      H1497   1.406       .  S
C1501      C1502   1.399       .  A
C1501      C1506   1.424       .  A
C1502      C1503   1.396       .  A
C1502      H1511   1.079       .  S
C1503      C1504   1.419       .  A
C1503      S1507   1.800       .  S
C1504      C1505   1.393       .  A
C1505      C1506   1.397       .  A
C1505      H1512   1.085       .  S
C1506      S1508   1.794       .  S
S1507      H1510   1.405       .  S
C1513      C1514   1.405       .  A
C1513      C1518   1.408       .  A
C1514      C1515   1.402       .  A
C1514      H1523   1.084       .  S
C1515      C1516   1.412       .  A
C1515      S1519   1.801       .  S
C1516      C1517   1.401       .  A
C1517      C1518   1.405       .  A
C1517      H3144   1.076       .  S
C1518      S3140   1.799       .  S
S1519      H1522   1.408       .  S
S1520      C3138   1.799       .  S
S1520      H3141   1.407   1_655  S
H1521      S3140   1.407       .  S
H1524      C3137   1.076       .  S
C1525      C1526   1.402       .  A
C1525      C1530   1.411       .  A
C1526      C1527   1.399       .  A
C1526      H1535   1.084       .  S
C1527      C1528   1.409       .  A
C1527      S3151   1.803       .  S
C1528      C1529   1.406       .  A
C1529      C1530   1.404       .  A
C1529      H1536   1.079       .  S
C1530      S1532   1.805       .  S
S1531      C3147   1.803       .  S
S1531      H1534   1.407       .  S
S1532      H1533   1.404       .  S
C1537      C1538   1.407       .  A
C1537      C1542   1.410       .  A
C1538      C1539   1.399       .  A
C1538      H1547   1.084       .  S
C1539      C1540   1.415       .  A
C1539      S1543   1.802       .  S
C1540      C1541   1.405       .  A
C1541      C1542   1.397       .  A
C1542      S1544   1.792       .  S
S1543      H1546   1.393       .  S
S1544      H1545   1.396       .  S
C1549      C1550   1.410       .  A
C1549      C1554   1.419       .  A
C1550      C1551   1.397       .  A
C1551      C1552   1.411       .  A
C1551      S1555   1.794       .  S
C1552      C1553   1.412       .  A
C1553      C1554   1.408       .  A
C1553      H1560   1.084       .  S
C1554      S1556   1.803       .  S
S1556      H1557   1.406       .  S
C1561      C1562   1.404       .  A
C1561      C1566   1.415       .  A
C1562      C1563   1.404       .  A
C1562      H1571   1.082       .  S
C1563      C1564   1.421       .  A
C1563      S1567   1.807       .  S
C1564      C1565   1.414       .  A
C1565      C1566   1.414       .  A
C1565      H1572   1.082       .  S
C1566      S1568   1.802       .  S
S1567      H1570   1.407       .  S
S1568      H1569   1.407       .  S
C1573      C1574   1.398       .  A
C1573      C1578   1.396       .  A
C1574      C1575   1.410       .  A
C1574      H1583   1.083       .  S
C1575      C1576   1.428       .  A
C1575      S1579   1.808       .  S
C1576      C1577   1.418       .  A
C1577      C1578   1.387       .  A
C1577      H1584   1.075       .  S
C1578      S1580   1.803       .  S
S1579      H1582   1.407       .  S
C1585      C1586   1.408       .  A
C1585      C1590   1.417       .  A
C1586      C1587   1.387       .  A
C1586      H1595   1.082   1_455  S
C1587      C1588   1.398       .  A
C1588      C1589   1.396       .  A
C1589      C1590   1.394       .  A
C1589      H1596   1.075       .  S
C1590      S1592   1.805       .  S
S1591      H1594   1.401       .  S
S1592      H1593   1.406       .  S
C1597      C1598   1.394       .  A
C1597      C1602   1.417       .  A
C1598      C1599   1.391       .  A
C1598      H3227   1.077       .  S
C1599      C1600   1.417       .  A
C1600      C1601   1.399       .  A
C1601      C1602   1.400       .  A
C1601      H1608   1.084       .  S
C1602      S1604   1.801       .  S
S1603      H1606   1.402       .  S
S1604      H1605   1.405       .  S
H1607      C3218   1.077       .  S
C1609      C1610   1.406       .  A
C1609      C1614   1.409       .  A
C1610      C1611   1.399       .  A
C1610      H1619   1.084       .  S
C1611      C1612   1.413       .  A
C1611      S1615   1.802       .  S
C1612      C1613   1.414       .  A
C1613      C1614   1.403       .  A
C1613      H1620   1.083       .  S
C1614      S1616   1.804       .  S
S1615      H1618   1.406       .  S
S1616      H1617   1.404       .  S
N1621      C1895   1.369       .  A
N1621      C1622   1.373       .  A
N1621      C1949   1.465       .  S
C1622      C1623   1.380       .  A
C1622      C1879   1.480       .  S
C1623      C1894   1.351       .  A
C1623      H1626   1.083       .  S
C1624      C2163   1.351       .  A
C1624      C1625   1.381   1_556  A
C1624      H1627   1.083   1_556  S
C1625      N2161   1.369   1_554  A
C1625      C1870   1.468       .  S
N1628      C1902   1.354       .  A
N1628      C1629   1.349       .  A
N1628      C1672   1.440       .  S
C1629      C1630   1.380       .  A
C1629      C1858   1.454       .  S
C1630      C1901   1.370       .  A
C1630      H1633   1.083       .  S
C1631      C2170   1.370   1_554  A
C1631      C1632   1.383       .  A
C1631      H1634   1.083       .  S
C1632      N2168   1.354   1_554  A
C1632      C1843   1.466       .  S
N1635      C2179   1.375       .  A
N1635      C1636   1.374       .  A
N1635      C1668   1.457       .  S
C1636      C1637   1.381       .  A
C1636      C1822   1.492       .  S
C1637      C2178   1.359       .  A
C1637      H1640   1.083       .  S
C1638      C1907   1.359       .  A
C1638      C1639   1.384       .  A
C1638      H1641   1.083       .  S
C1639      N1905   1.375       .  A
C1639      C1831   1.505       .  S
N1642      C1916   1.357       .  A
N1642      C1643   1.355       .  A
N1642      C1706   1.433       .  S
C1643      C1644   1.386       .  A
C1643      C1807   1.485       .  S
C1644      C1915   1.367       .  A
C1644      H1647   1.081       .  S
C1645      C2184   1.367       .  A
C1645      C1646   1.379       .  A
C1645      H1648   1.083       .  S
C1646      N2182   1.357       .  A
C1646      C1795   1.476       .  S
N1649      C1923   1.361       .  A
N1649      C1650   1.361       .  A
N1649      C1974   1.441       .  S
C1650      C1651   1.380       .  A
C1650      C1783   1.484       .  S
C1651      C1922   1.365       .  A
C1651      H1654   1.081       .  S
C1652      C2191   1.365       .  A
C1652      C1653   1.379       .  A
C1652      H1655   1.073       .  S
C1653      N2189   1.361       .  A
C1653      C1771   1.492       .  S
N1656      C1660   1.358       .  A
N1656      C1927   1.359       .  A
N1656      C1680   1.437       .  S
C1657      N2196   1.359       .  A
C1657      C1658   1.369       .  A
C1657      C1747   1.479   1_556  S
C1658      C2199   1.364       .  A
C1658      H1661   1.080       .  S
C1659      C1928   1.364       .  A
C1659      C1660   1.389       .  A
C1659      H1662   1.077       .  S
C1660      C1762   1.486       .  S
O1663     Mg1665   2.146   1_655  S
O1663     Mg1941   2.146       .  S
O1663      C1698   1.231       .  S
C1664      H2513   1.081   1_545  S
C1664      O2487   1.237   1_545  S
C1664      O1701   1.271       .  A
Mg1665     O1979   2.267   1_455  S
O1666     Mg1691   2.170       .  S
O1667      C1698   1.265       .  A
O1667     Mg2501   2.289       .  S
C1668      O1670   1.275       .  A
C1668      O1682   1.281       .  A
O1669      C1697   1.274       .  A
O1669     Mg1671   2.326       .  S
O1670     Mg1702   2.308       .  S
Mg1671     O2203   2.146   1_554  S
Mg1671     O1677   2.179       .  S
Mg1671     O1685   2.321       .  S
Mg1671     O2213   2.310   1_554  S
C1672      O1710   1.271       .  A
C1672      O1678   1.278       .  A
O1673      C1680   1.273       .  A
O1673     Mg1941   2.310       .  S
C1675      H1700   1.081       .  S
C1675      O1689   1.232       .  S
C1675      O1690   1.267       .  A
O1676      C2509   1.273       .  A
O1677     Mg3041   2.196   1_554  S
O1677      C2474   1.237       .  S
O1678     Mg1978   2.329       .  S
C1679      N2161   1.465       .  S
C1679      O1692   1.282   1_556  A
C1679      O1684   1.273       .  A
C1680      O1707   1.277       .  A
Mg1681     O1688   2.156       .  S
Mg1681     O1959   2.175       .  S
Mg1681     O1952   2.354       .  S
Mg1681     O1683   2.319       .  S
Mg1681     O1710   2.265       .  S
O1682     Mg2221   2.354   1_554  S
O1683      C1687   1.272       .  A
O1684     Mg2231   2.314       .  S
O1685      C1704   1.272       .  A
O1686      C1706   1.275       .  A
O1686     Mg2782   2.297       .  S
O1688     Mg1972   2.187       .  S
O1688      C1699   1.238       .  S
O1689     Mg2221   2.175   1_554  S
O1689     Mg1708   2.203       .  S
O1690     Mg1702   2.302       .  S
Mg1691     O2757   2.196   1_545  S
Mg1691     O2477   2.289   1_545  S
Mg1691     O1954   2.314       .  S
Mg1691     O2517   2.279   1_545  S
H1693      C1698   1.081       .  S
O1694     Mg2512   2.164       .  S
H1696      C1699   1.081       .  S
C1699      O2486   1.273   1_545  A
Mg1702     O2228   2.187   1_554  S
Mg1702     O2504   2.164   1_545  S
Mg1702     O3036   2.297   1_545  S
H1703      C2474   1.081       .  S
C1704      N2189   1.441       .  S
C1704      O1709   1.271       .  A
O1705      C1706   1.265       .  A
O1707     Mg2501   2.279       .  S
Mg1708     O2218   2.329   1_554  S
O1709     Mg2205   2.267   1_654  S
C1711      C1715   1.542       .  S
C1711      C1855   1.519       .  S
C1712      H1719   1.086       .  S
C1712      C1713   1.359       .  D
C1713      C1714   1.556       .  S
C1713      C1867   1.483       .  S
C1714      C1718   1.545       .  S
C1714      H1720   1.105       .  S
C1715      H1721   1.083       .  S
C1715      C1716   1.363       .  D
C1716      C1798   1.484       .  S
C1717      H1722   1.086       .  S
C1717      C1718   1.359       .  D
C1718      C1786   1.485       .  S
C1723      C2534   1.530       .  S
C1723      C2539   1.544       .  S
C1723      C1727   1.549       .  S
C1723      C1750   1.535       .  S
C1724      C2533   1.530       .  S
C1724      H1731   1.087       .  S
C1724      C1725   1.360       .  D
C1725      C1726   1.551       .  S
C1725      C1882   1.501   1_565  S
C1726      C1730   1.536       .  S
C1726      C2538   1.546       .  S
C1726      H1732   1.099       .  S
C1727      H1733   1.078       .  S
C1727      C1728   1.373       .  D
C1728      C2536   1.546       .  S
C1728      C1810   1.489       .  S
C1729      C2533   1.544       .  S
C1729      H1734   1.087       .  S
C1729      C1730   1.364       .  D
C1730      C1819   1.509   1_565  S
C1735      C1736   1.542       .  S
C1735      C1741   1.537       .  S
C1735      C1739   1.540       .  S
C1735      C1846   1.543       .  S
C1736      H1743   1.083       .  S
C1736      C1737   1.380       .  D
C1737      C1738   1.563       .  S
C1737      C1834   1.517       .  S
C1738      C1742   1.536       .  S
C1738      C1740   1.526       .  S
C1738      H1744   1.106       .  S
C1739      H1745   1.087       .  S
C1739      C1740   1.364       .  D
C1740      C1759   1.481       .  S
C1741      H1746   1.083       .  S
C1741      C1742   1.351       .  D
C1742      C1774   1.477       .  S
C1747      C1748   1.408       .  A
C1747      C1752   1.405       .  A
C1748      C1749   1.409       .  A
C1748      H1757   1.084       .  S
C1749      C1750   1.417       .  A
C1749      S1753   1.798       .  S
C1750      C1751   1.405       .  A
C1751      C1752   1.385       .  A
C1751      H2568   1.085       .  S
C1752      S2564   1.782       .  S
S1753      H1756   1.408       .  S
S1754      C2562   1.782   1_545  S
S1754      H3105   1.397   1_544  S
H1755      S2834   1.397       .  S
H1758      C2561   1.085       .  S
C1759      C1760   1.407       .  A
C1759      C1764   1.405       .  A
C1760      C1761   1.405       .  A
C1760      H1769   1.082       .  S
C1761      C1762   1.411       .  A
C1761      S1765   1.801       .  S
C1762      C1763   1.408       .  A
C1763      C1764   1.387       .  A
C1763      H1770   1.083       .  S
C1764      S1766   1.797       .  S
S1765      H1768   1.406       .  S
S1766      H1767   1.406       .  S
C1771      C1772   1.399       .  A
C1771      C1776   1.424       .  A
C1772      C1773   1.396       .  A
C1772      H1781   1.079       .  S
C1773      C1774   1.419       .  A
C1773      S1777   1.800       .  S
C1774      C1775   1.393       .  A
C1775      C1776   1.397       .  A
C1775      H1782   1.085       .  S
C1776      S1778   1.794       .  S
S1777      H1780   1.405       .  S
S1778      H2319   1.406       .  S
H1779      S2048   1.406       .  S
C1783      C1784   1.405       .  A
C1783      C1788   1.408       .  A
C1784      C1785   1.402       .  A
C1784      H1793   1.084       .  S
C1785      C1786   1.412       .  A
C1785      S1789   1.801       .  S
C1786      C1787   1.401       .  A
C1787      C1788   1.405       .  A
S1789      H1792   1.408       .  S
C1795      C1796   1.402       .  A
C1795      C1800   1.411       .  A
C1796      C1797   1.399       .  A
C1796      H1805   1.084       .  S
C1797      C1798   1.409       .  A
C1798      C1799   1.406       .  A
C1799      C1800   1.404       .  A
C1799      H1806   1.079       .  S
C1800      S1802   1.805       .  S
S1801      H1804   1.407       .  S
S1802      H1803   1.404       .  S
C1807      C1808   1.407       .  A
C1807      C1812   1.410       .  A
C1808      C1809   1.399       .  A
C1808      H1817   1.084       .  S
C1809      C1810   1.415       .  A
C1809      S1813   1.802       .  S
C1810      C1811   1.405       .  A
C1811      C1812   1.397       .  A
C1811      H2628   1.085       .  S
C1812      S1814   1.792       .  S
S1813      H1816   1.393       .  S
S1814      H1815   1.396       .  S
H1818      C2621   1.085       .  S
C1819      C1820   1.410       .  A
C1819      C1824   1.419       .  A
C1820      C1821   1.397       .  A
C1820      H2639   1.082   1_545  S
C1821      C1822   1.411       .  A
C1821      S1825   1.794       .  S
C1822      C1823   1.412       .  A
C1823      C1824   1.408       .  A
C1823      H1830   1.085       .  S
C1824      S1826   1.803       .  S
S1825      H2368   1.407       .  S
S1826      H1827   1.406       .  S
H1828      S2095   1.407       .  S
H1829      C2630   1.082       .  S
C1831      C1832   1.404       .  A
C1831      C1836   1.415       .  A
C1832      C1833   1.404       .  A
C1832      H1841   1.082       .  S
C1833      C1834   1.421       .  A
C1833      S1837   1.807       .  S
C1834      C1835   1.414       .  A
C1835      C1836   1.414       .  A
C1835      H1842   1.082       .  S
C1836      S1838   1.802       .  S
S1837      H1840   1.407       .  S
S1838      H1839   1.407       .  S
C1843      C1844   1.398       .  A
C1843      C1848   1.396       .  A
C1844      C1845   1.410       .  A
C1844      H1853   1.083       .  S
C1845      C1846   1.428       .  A
C1845      S1849   1.808       .  S
C1846      C1847   1.418       .  A
C1847      C1848   1.387       .  A
C1847      H1854   1.075       .  S
C1848      S1850   1.803   1_554  S
S1849      H1852   1.407       .  S
S1850      H2391   1.404       .  S
H1851      S2120   1.404       .  S
C1855      C1856   1.408       .  A
C1855      C1860   1.417       .  A
C1856      C1857   1.387       .  A
C1856      H1865   1.082       .  S
C1857      C1858   1.398       .  A
C1857      S2131   1.795       .  S
C1858      C1859   1.396       .  A
C1859      C1860   1.394       .  A
C1859      H1866   1.075       .  S
C1860      S1862   1.805       .  S
S1861      C2397   1.795       .  S
S1861      H1864   1.401   1_556  S
S1862      H1863   1.406       .  S
C1867      C1868   1.394       .  A
C1867      C1872   1.417       .  A
C1868      C1869   1.391       .  A
C1869      C1870   1.417       .  A
C1869      S2413   1.810   1_554  S
C1870      C1871   1.399       .  A
C1871      C1872   1.400       .  A
C1871      H1878   1.084       .  S
C1872      S1874   1.801       .  S
S1873      C2139   1.810       .  S
S1873      H1876   1.402       .  S
S1874      H1875   1.405       .  S
C1879      C1880   1.406       .  A
C1879      C1884   1.409       .  A
C1880      C1881   1.399       .  A
C1880      H1889   1.084       .  S
C1881      C1882   1.413       .  A
C1881      S1885   1.802   1_545  S
C1882      C1883   1.414       .  A
C1883      C1884   1.403       .  A
C1883      H1890   1.083       .  S
C1884      S1886   1.804       .  S
S1885      H1888   1.406       .  S
S1886      H1887   1.404       .  S
N1891      C2165   1.369       .  A
N1891      C1892   1.373       .  A
N1891      C2219   1.465       .  S
C1892      C1893   1.380       .  A
C1892      C2149   1.480       .  S
C1893      C2164   1.351       .  A
C1893      H1896   1.083       .  S
C1894      C1895   1.381       .  A
C1894      H1897   1.083       .  S
C1895      C2140   1.468       .  S
N1898      C2172   1.354       .  A
N1898      C1899   1.349       .  A
N1898      C1942   1.440       .  S
C1899      C1900   1.380       .  A
C1899      C2128   1.454       .  S
C1900      C2171   1.370       .  A
C1900      H1903   1.083       .  S
C1901      C1902   1.383       .  A
C1901      H1904   1.082       .  S
C1902      C2113   1.466       .  S
N1905      C1906   1.374       .  A
N1905      C1938   1.457       .  S
C1906      C1907   1.381       .  A
C1906      C2092   1.492       .  S
C1907      H1910   1.083       .  S
C1908      C2177   1.359       .  A
C1908      C1909   1.384       .  A
C1908      H1911   1.083       .  S
C1909      N2175   1.375       .  A
C1909      C2101   1.505       .  S
N1912      C2186   1.357       .  A
N1912      C1913   1.355       .  A
N1912      C1976   1.433       .  S
C1913      C1914   1.386       .  A
C1913      C2077   1.485       .  S
C1914      C2185   1.367       .  A
C1914      H1917   1.081       .  S
C1915      C1916   1.379       .  A
C1915      H1918   1.083       .  S
C1916      C2065   1.476       .  S
N1919      C2193   1.361       .  A
N1919      C1920   1.361       .  A
N1919      C2244   1.441       .  S
C1920      C1921   1.380       .  A
C1920      C2053   1.484       .  S
C1921      C2192   1.365       .  A
C1921      H1924   1.081       .  S
C1922      C1923   1.379       .  A
C1922      H1925   1.073       .  S
C1923      C2041   1.492       .  S
N1926      C1930   1.358       .  A
N1926      C2197   1.359       .  A
N1926      C1950   1.437       .  S
C1927      C1928   1.369       .  A
C1927      C2017   1.479       .  S
C1928      H1931   1.080       .  S
C1929      C2198   1.364       .  A
C1929      C1930   1.389       .  A
C1929      H1932   1.077       .  S
C1930      C2032   1.486       .  S
O1933     Mg1935   2.146   1_655  S
O1933     Mg2211   2.146       .  S
O1933      C1968   1.231       .  S
C1934      H2783   1.081   1_545  S
C1934      O2757   1.237   1_545  S
C1934      O1971   1.271       .  A
Mg1935     O2249   2.267   1_455  S
O1936     Mg1961   2.170       .  S
O1937      C1968   1.265       .  A
O1937     Mg2771   2.289       .  S
C1938      O1940   1.275       .  A
C1938      O1952   1.281       .  A
O1939      C1967   1.274       .  A
O1939     Mg1941   2.326       .  S
O1940     Mg1972   2.308       .  S
Mg1941     O1947   2.179       .  S
Mg1941     O1955   2.321       .  S
C1942      O1980   1.271       .  A
C1942      O1948   1.278       .  A
O1943      C1950   1.273       .  A
O1943     Mg2211   2.310       .  S
C1945      H1970   1.081       .  S
C1945      O1959   1.232       .  S
C1945      O1960   1.267       .  A
O1946      C2779   1.273       .  A
O1947     Mg2501   2.196       .  S
O1947      C2744   1.237       .  S
O1948     Mg2248   2.329       .  S
C1949      O1962   1.282       .  A
C1949      O1954   1.273       .  A
C1950      O1977   1.277       .  A
Mg1951     O1958   2.156       .  S
Mg1951     O2229   2.175       .  S
Mg1951     O2222   2.354       .  S
Mg1951     O1953   2.319       .  S
Mg1951     O1980   2.265       .  S
O1953      C1957   1.272       .  A
O1955      C1974   1.272       .  A
O1956      C1976   1.275       .  A
O1956     Mg3052   2.297       .  S
O1958     Mg2242   2.187       .  S
O1958      C1969   1.238       .  S
O1959     Mg1978   2.203       .  S
O1960     Mg1972   2.302       .  S
Mg1961     O3027   2.196   1_545  S
Mg1961     O2747   2.289   1_545  S
Mg1961     O2224   2.314       .  S
Mg1961     O2787   2.279   1_545  S
H1963      C1968   1.081       .  S
O1964     Mg2782   2.164       .  S
H1966      C1969   1.081       .  S
C1969      O2756   1.273   1_545  A
Mg1972     O2774   2.164   1_545  S
Mg1972     O2496   2.297   1_545  S
H1973      C2744   1.081       .  S
C1974      O1979   1.271       .  A
O1975      C1976   1.265       .  A
O1977     Mg2771   2.279       .  S
C1981      C1985   1.542       .  S
C1981      C2125   1.519       .  S
C1982      H1989   1.086       .  S
C1982      C1983   1.359       .  D
C1983      C1984   1.556       .  S
C1983      C2137   1.483       .  S
C1984      C1988   1.545       .  S
C1984      H1990   1.105       .  S
C1985      H1991   1.083       .  S
C1985      C1986   1.363       .  D
C1986      C2068   1.484       .  S
C1987      H1992   1.086       .  S
C1987      C1988   1.359       .  D
C1988      C2056   1.485       .  S
C1993      C2804   1.530       .  S
C1993      C2809   1.544       .  S
C1993      C1997   1.549       .  S
C1993      C2020   1.535       .  S
C1994      C2803   1.530       .  S
C1994      H2001   1.087       .  S
C1994      C1995   1.360       .  D
C1995      C1996   1.551       .  S
C1995      C2152   1.501   1_565  S
C1996      C2000   1.536       .  S
C1996      C2808   1.546       .  S
C1996      H2002   1.099       .  S
C1997      H2003   1.078       .  S
C1997      C1998   1.373       .  D
C1998      C2806   1.546       .  S
C1998      C2080   1.489       .  S
C1999      C2803   1.544       .  S
C1999      H2004   1.087       .  S
C1999      C2000   1.364       .  D
C2000      C2089   1.509   1_565  S
C2005      C2006   1.542       .  S
C2005      C2011   1.537       .  S
C2005      C2009   1.540       .  S
C2005      C2116   1.543       .  S
C2006      H2013   1.083       .  S
C2006      C2007   1.380       .  D
C2007      C2008   1.563       .  S
C2007      C2104   1.517       .  S
C2008      C2012   1.536       .  S
C2008      C2010   1.526       .  S
C2008      H2014   1.106       .  S
C2009      H2015   1.087       .  S
C2009      C2010   1.364       .  D
C2010      C2029   1.481       .  S
C2011      H2016   1.083       .  S
C2011      C2012   1.351       .  D
C2012      C2044   1.477       .  S
C2017      C2018   1.408       .  A
C2017      C2022   1.405       .  A
C2018      C2019   1.409       .  A
C2018      H2027   1.084       .  S
C2019      C2020   1.417       .  A
C2019      S2023   1.798       .  S
C2020      C2021   1.405       .  A
C2021      C2022   1.385       .  A
C2021      H2838   1.085       .  S
C2022      S2834   1.782       .  S
S2023      H2026   1.408       .  S
S2024      C2832   1.782   1_545  S
S2024      H2565   1.397   1_545  S
H2025      S3104   1.397       .  S
H2028      C2831   1.085       .  S
C2029      C2030   1.407       .  A
C2029      C2034   1.405       .  A
C2030      C2031   1.405       .  A
C2030      H2039   1.082       .  S
C2031      C2032   1.411       .  A
C2031      S2035   1.801       .  S
C2032      C2033   1.408       .  A
C2033      C2034   1.387       .  A
C2033      H2040   1.083       .  S
C2034      S2036   1.797       .  S
S2035      H2038   1.406       .  S
S2036      H2037   1.406       .  S
C2041      C2042   1.399       .  A
C2041      C2046   1.424       .  A
C2042      C2043   1.396       .  A
C2042      H2051   1.079       .  S
C2043      C2044   1.419       .  A
C2043      S2047   1.800       .  S
C2044      C2045   1.393       .  A
C2045      C2046   1.397       .  A
C2045      H2052   1.085       .  S
C2046      S2048   1.794       .  S
S2047      H2050   1.405       .  S
H2049      S2318   1.406       .  S
C2053      C2054   1.405       .  A
C2053      C2058   1.408       .  A
C2054      C2055   1.402       .  A
C2054      H2063   1.084       .  S
C2055      C2056   1.412       .  A
C2055      S2059   1.801       .  S
C2056      C2057   1.401       .  A
C2057      C2058   1.405       .  A
S2059      H2062   1.408       .  S
C2065      C2066   1.402       .  A
C2065      C2070   1.411       .  A
C2066      C2067   1.399       .  A
C2066      H2075   1.084       .  S
C2067      C2068   1.409       .  A
C2068      C2069   1.406       .  A
C2069      C2070   1.404       .  A
C2069      H2076   1.079       .  S
C2070      S2072   1.805       .  S
S2071      H2074   1.407       .  S
S2072      H2073   1.404       .  S
C2077      C2078   1.407       .  A
C2077      C2082   1.410       .  A
C2078      C2079   1.399       .  A
C2078      H2087   1.084       .  S
C2079      C2080   1.415       .  A
C2079      S2083   1.802       .  S
C2080      C2081   1.405       .  A
C2081      C2082   1.397       .  A
C2081      H2898   1.085       .  S
C2082      S2084   1.792       .  S
S2083      H2086   1.393       .  S
S2084      H2085   1.396       .  S
H2088      C2891   1.085       .  S
C2089      C2090   1.410       .  A
C2089      C2094   1.419       .  A
C2090      C2091   1.397       .  A
C2090      H2909   1.082   1_545  S
C2091      C2092   1.411       .  A
C2091      S2095   1.794       .  S
C2092      C2093   1.412       .  A
C2093      C2094   1.408       .  A
C2093      H2100   1.084       .  S
C2094      S2096   1.803       .  S
S2096      H2097   1.406       .  S
H2098      S2365   1.407       .  S
H2099      C2900   1.082       .  S
C2101      C2102   1.404       .  A
C2101      C2106   1.415       .  A
C2102      C2103   1.404       .  A
C2102      H2111   1.082       .  S
C2103      C2104   1.421       .  A
C2103      S2107   1.807       .  S
C2104      C2105   1.414       .  A
C2105      C2106   1.414       .  A
C2105      H2112   1.082       .  S
C2106      S2108   1.802       .  S
S2107      H2110   1.407       .  S
S2108      H2109   1.407       .  S
C2113      C2114   1.398       .  A
C2113      C2118   1.396       .  A
C2114      C2115   1.410       .  A
C2114      H2123   1.083       .  S
C2115      C2116   1.428       .  A
C2115      S2119   1.808       .  S
C2116      C2117   1.418       .  A
C2117      C2118   1.387       .  A
C2117      H2124   1.075       .  S
C2118      S2120   1.803       .  S
S2119      H2122   1.407       .  S
H2121      S2390   1.404       .  S
C2125      C2126   1.408       .  A
C2125      C2130   1.417       .  A
C2126      C2127   1.387       .  A
C2126      H2135   1.082       .  S
C2127      C2128   1.398       .  A
C2127      S2401   1.795       .  S
C2128      C2129   1.396       .  A
C2129      C2130   1.394       .  A
C2129      H2136   1.075       .  S
C2130      S2132   1.805       .  S
S2131      H2134   1.401       .  S
S2132      H2133   1.406       .  S
C2137      C2138   1.394       .  A
C2137      C2142   1.417       .  A
C2138      C2139   1.391       .  A
C2139      C2140   1.417       .  A
C2140      C2141   1.399       .  A
C2141      C2142   1.400       .  A
C2141      H2148   1.084       .  S
C2142      S2144   1.801       .  S
S2143      C2409   1.810       .  S
S2143      H2146   1.402       .  S
S2144      H2145   1.405       .  S
C2149      C2150   1.406       .  A
C2149      C2154   1.409       .  A
C2150      C2151   1.399       .  A
C2150      H2159   1.084       .  S
C2151      C2152   1.413       .  A
C2151      S2155   1.802   1_545  S
C2152      C2153   1.414       .  A
C2153      C2154   1.403       .  A
C2153      H2160   1.083       .  S
C2154      S2156   1.804       .  S
S2155      H2158   1.406       .  S
S2156      H2157   1.404       .  S
N2161      C2162   1.373       .  A
C2162      C2163   1.380       .  A
C2162      C2419   1.479       .  S
C2163      H2166   1.083       .  S
C2164      C2165   1.381       .  A
C2164      H2167   1.083       .  S
C2165      C2410   1.468       .  S
N2168      C2169   1.349       .  A
N2168      C2212   1.440       .  S
C2169      C2170   1.380       .  A
C2169      C2398   1.454       .  S
C2170      H2173   1.083       .  S
C2171      C2172   1.383       .  A
C2171      H2174   1.082       .  S
C2172      C2383   1.466       .  S
N2175      C2176   1.374       .  A
N2175      C2208   1.457       .  S
C2176      C2177   1.381       .  A
C2176      C2362   1.492       .  S
C2177      H2180   1.083       .  S
C2178      C2179   1.384       .  A
C2178      H2181   1.083       .  S
C2179      C2371   1.505   1_554  S
N2182      C2183   1.355   1_554  A
N2182      C2246   1.433       .  S
C2183      C2184   1.386   1_556  A
C2183      C2347   1.485       .  S
C2184      H2187   1.081       .  S
C2185      C2186   1.379       .  A
C2185      H2188   1.083       .  S
C2186      C2335   1.476       .  S
N2189      C2190   1.361   1_554  A
C2190      C2191   1.380   1_556  A
C2190      C2323   1.484       .  S
C2191      H2194   1.081   1_554  S
C2192      C2193   1.379       .  A
C2192      H2195   1.073       .  S
C2193      C2311   1.492       .  S
N2196      C2200   1.358       .  A
N2196      C2220   1.437       .  S
C2197      C2198   1.369       .  A
C2197      C2287   1.479       .  S
C2198      H2201   1.080       .  S
C2199      C2200   1.389       .  A
C2199      H2202   1.077       .  S
C2200      C2302   1.486       .  S
O2203     Mg2205   2.146   1_655  S
O2203      C2238   1.231       .  S
C2204      H3053   1.081   1_545  S
C2204      O3027   1.237   1_545  S
C2204      O2241   1.271       .  A
O2206     Mg2231   2.170       .  S
O2207      C2238   1.265       .  A
O2207     Mg3041   2.289       .  S
C2208      O2210   1.275       .  A
C2208      O2222   1.281       .  A
O2209      C2237   1.274       .  A
O2209     Mg2211   2.326       .  S
O2210     Mg2242   2.308       .  S
Mg2211     O2217   2.179       .  S
Mg2211     O2225   2.321       .  S
C2212      O2250   1.271       .  A
C2212      O2218   1.278       .  A
O2213      C2220   1.273       .  A
C2215      H2240   1.081       .  S
C2215      O2229   1.232       .  S
C2215      O2230   1.267       .  A
O2216      C3049   1.273       .  A
O2217     Mg2771   2.196       .  S
O2217      C3014   1.236       .  S
C2219      O2232   1.282       .  A
C2219      O2224   1.273       .  A
C2220      O2247   1.277       .  A
Mg2221     O2228   2.156       .  S
Mg2221     O2223   2.319       .  S
Mg2221     O2250   2.265       .  S
O2223      C2227   1.272       .  A
O2225      C2244   1.272       .  A
O2226      C2246   1.275       .  A
O2226     Mg2512   2.297       .  S
O2228      C2239   1.238       .  S
O2229     Mg2248   2.203       .  S
O2230     Mg2242   2.302       .  S
Mg2231     O2487   2.196   1_546  S
Mg2231     O3017   2.289   1_545  S
Mg2231     O3057   2.279   1_545  S
H2233      C2238   1.081       .  S
O2234     Mg3052   2.164       .  S
H2236      C2239   1.081       .  S
C2239      O3026   1.273   1_545  A
Mg2242     O3044   2.164   1_545  S
Mg2242     O2766   2.297   1_545  S
H2243      C3014   1.081       .  S
C2244      O2249   1.271       .  A
O2245      C2246   1.265   1_556  A
O2247     Mg3041   2.279       .  S
C2251      C2255   1.542       .  S
C2251      C2395   1.519       .  S
C2252      H2259   1.086       .  S
C2252      C2253   1.359       .  D
C2253      C2254   1.556       .  S
C2253      C2407   1.483       .  S
C2254      C2258   1.545       .  S
C2254      H2260   1.105       .  S
C2255      H2261   1.083       .  S
C2255      C2256   1.363       .  D
C2256      C2338   1.484       .  S
C2257      H2262   1.086       .  S
C2257      C2258   1.359       .  D
C2258      C2326   1.485       .  S
C2263      C3074   1.530       .  S
C2263      C3079   1.544       .  S
C2263      C2267   1.549       .  S
C2263      C2290   1.535       .  S
C2264      C3073   1.530       .  S
C2264      H2271   1.087       .  S
C2264      C2265   1.360       .  D
C2265      C2266   1.551       .  S
C2265      C2422   1.501   1_565  S
C2266      C2270   1.536       .  S
C2266      C3078   1.546       .  S
C2266      H2272   1.099       .  S
C2267      H2273   1.078       .  S
C2267      C2268   1.373       .  D
C2268      C3076   1.546       .  S
C2268      C2350   1.489       .  S
C2269      C3073   1.544       .  S
C2269      H2274   1.087       .  S
C2269      C2270   1.364       .  D
C2270      C2359   1.509   1_565  S
C2275      C2276   1.542       .  S
C2275      C2281   1.537       .  S
C2275      C2279   1.540       .  S
C2275      C2386   1.543       .  S
C2276      H2283   1.083       .  S
C2276      C2277   1.380       .  D
C2277      C2278   1.563       .  S
C2277      C2374   1.517       .  S
C2278      C2282   1.536       .  S
C2278      C2280   1.526       .  S
C2278      H2284   1.106       .  S
C2279      H2285   1.087       .  S
C2279      C2280   1.364       .  D
C2280      C2299   1.481       .  S
C2281      H2286   1.083       .  S
C2281      C2282   1.351       .  D
C2282      C2314   1.477       .  S
C2287      C2288   1.408       .  A
C2287      C2292   1.405       .  A
C2288      C2289   1.409       .  A
C2288      H2297   1.084       .  S
C2289      C2290   1.417       .  A
C2289      S2293   1.798       .  S
C2290      C2291   1.405       .  A
C2291      C2292   1.385       .  A
C2291      H3108   1.085       .  S
C2292      S3104   1.782       .  S
S2293      H2296   1.408       .  S
S2294      C3102   1.782   1_545  S
S2294      H2835   1.397   1_545  S
H2295      S2564   1.397   1_556  S
H2298      C3101   1.085       .  S
C2299      C2300   1.407       .  A
C2299      C2304   1.405       .  A
C2300      C2301   1.405       .  A
C2300      H2309   1.082       .  S
C2301      C2302   1.411       .  A
C2301      S2305   1.801       .  S
C2302      C2303   1.408       .  A
C2303      C2304   1.387       .  A
C2303      H2310   1.083       .  S
C2304      S2306   1.797       .  S
S2305      H2308   1.406       .  S
S2306      H2307   1.406       .  S
C2311      C2312   1.399       .  A
C2311      C2316   1.424       .  A
C2312      C2313   1.396       .  A
C2312      H2321   1.079       .  S
C2313      C2314   1.419       .  A
C2313      S2317   1.800       .  S
C2314      C2315   1.393       .  A
C2315      C2316   1.397       .  A
C2315      H2322   1.085       .  S
C2316      S2318   1.794       .  S
S2317      H2320   1.405       .  S
C2323      C2324   1.405       .  A
C2323      C2328   1.408       .  A
C2324      C2325   1.402       .  A
C2324      H2333   1.084       .  S
C2325      C2326   1.412       .  A
C2325      S2329   1.801       .  S
C2326      C2327   1.401       .  A
C2327      C2328   1.405       .  A
S2329      H2332   1.408       .  S
C2335      C2336   1.402       .  A
C2335      C2340   1.411       .  A
C2336      C2337   1.399       .  A
C2336      H2345   1.084       .  S
C2337      C2338   1.409       .  A
C2338      C2339   1.406       .  A
C2339      C2340   1.404       .  A
C2339      H2346   1.079       .  S
C2340      S2342   1.805       .  S
S2341      H2344   1.407       .  S
S2342      H2343   1.404       .  S
C2347      C2348   1.407       .  A
C2347      C2352   1.410       .  A
C2348      C2349   1.399       .  A
C2348      H2357   1.084       .  S
C2349      C2350   1.415       .  A
C2349      S2353   1.802       .  S
C2350      C2351   1.405       .  A
C2351      C2352   1.397       .  A
C2351      H3168   1.085       .  S
C2352      S2354   1.792       .  S
S2353      H2356   1.393       .  S
S2354      H2355   1.396       .  S
H2358      C3161   1.085       .  S
C2359      C2360   1.410       .  A
C2359      C2364   1.419       .  A
C2360      C2361   1.397       .  A
C2360      H3179   1.082   1_545  S
C2361      C2362   1.411       .  A
C2361      S2365   1.794       .  S
C2362      C2363   1.412       .  A
C2363      C2364   1.408       .  A
C2363      H2370   1.084       .  S
C2364      S2366   1.803       .  S
S2366      H2367   1.406       .  S
H2369      C3170   1.082       .  S
C2371      C2372   1.404       .  A
C2371      C2376   1.415       .  A
C2372      C2373   1.404       .  A
C2372      H2381   1.082       .  S
C2373      C2374   1.421       .  A
C2373      S2377   1.807       .  S
C2374      C2375   1.414       .  A
C2375      C2376   1.414       .  A
C2375      H2382   1.082       .  S
C2376      S2378   1.802       .  S
S2377      H2380   1.407       .  S
S2378      H2379   1.407       .  S
C2383      C2384   1.398       .  A
C2383      C2388   1.396       .  A
C2384      C2385   1.410       .  A
C2384      H2393   1.083       .  S
C2385      C2386   1.428       .  A
C2385      S2389   1.808       .  S
C2386      C2387   1.418       .  A
C2387      C2388   1.387       .  A
C2387      H2394   1.075       .  S
C2388      S2390   1.803       .  S
S2389      H2392   1.407       .  S
C2395      C2396   1.408       .  A
C2395      C2400   1.417       .  A
C2396      C2397   1.387       .  A
C2396      H2405   1.082       .  S
C2397      C2398   1.398       .  A
C2398      C2399   1.396       .  A
C2399      C2400   1.394       .  A
C2399      H2406   1.075       .  S
C2400      S2402   1.805       .  S
S2401      H2404   1.401       .  S
S2402      H2403   1.406       .  S
C2407      C2408   1.394       .  A
C2407      C2412   1.417       .  A
C2408      C2409   1.391       .  A
C2409      C2410   1.417       .  A
C2410      C2411   1.399       .  A
C2411      C2412   1.400       .  A
C2411      H2418   1.084       .  S
C2412      S2414   1.801       .  S
S2413      H2416   1.402       .  S
S2414      H2415   1.405       .  S
C2419      C2420   1.406       .  A
C2419      C2424   1.409       .  A
C2420      C2421   1.399       .  A
C2420      H2429   1.084       .  S
C2421      C2422   1.413       .  A
C2421      S2425   1.802   1_545  S
C2422      C2423   1.414       .  A
C2423      C2424   1.403       .  A
C2423      H2430   1.083       .  S
C2424      S2426   1.804       .  S
S2425      H2428   1.406       .  S
S2426      H2427   1.404       .  S
N2431      C2705   1.369       .  A
N2431      C2432   1.373       .  A
N2431      C2759   1.465       .  S
C2432      C2433   1.380       .  A
C2432      C2689   1.479       .  S
C2433      C2704   1.351       .  A
C2433      H2436   1.083       .  S
C2434      C2973   1.351       .  A
C2434      C2435   1.381   1_556  A
C2434      H2437   1.083   1_556  S
C2435      N2971   1.369   1_554  A
C2435      C2680   1.468       .  S
N2438      C2712   1.354       .  A
N2438      C2439   1.349       .  A
N2438      C2482   1.440       .  S
C2439      C2440   1.380       .  A
C2439      C2668   1.454       .  S
C2440      C2711   1.370       .  A
C2440      H2443   1.083       .  S
C2441      C2980   1.370   1_554  A
C2441      C2442   1.383       .  A
C2441      H2444   1.083       .  S
C2442      N2978   1.354   1_554  A
C2442      C2653   1.466       .  S
N2445      C2989   1.375       .  A
N2445      C2446   1.374       .  A
N2445      C2478   1.457       .  S
C2446      C2447   1.381       .  A
C2446      C2632   1.492       .  S
C2447      C2988   1.359       .  A
C2447      H2450   1.083       .  S
C2448      C2717   1.359       .  A
C2448      C2449   1.384       .  A
C2448      H2451   1.083       .  S
C2449      N2715   1.375       .  A
C2449      C2641   1.505       .  S
N2452      C2726   1.357       .  A
N2452      C2453   1.355       .  A
N2452      C2516   1.433       .  S
C2453      C2454   1.386       .  A
C2453      C2617   1.485       .  S
C2454      C2725   1.367       .  A
C2454      H2457   1.081       .  S
C2455      C2994   1.367       .  A
C2455      C2456   1.379       .  A
C2455      H2458   1.083       .  S
C2456      N2992   1.357       .  A
C2456      C2605   1.476       .  S
N2459      C2733   1.361       .  A
N2459      C2460   1.361       .  A
N2459      C2784   1.441       .  S
C2460      C2461   1.380       .  A
C2460      C2593   1.484       .  S
C2461      C2732   1.365       .  A
C2461      H2464   1.081       .  S
C2462      C3001   1.365       .  A
C2462      C2463   1.379       .  A
C2462      H2465   1.073       .  S
C2463      N2999   1.361       .  A
C2463      C2581   1.492       .  S
N2466      C2470   1.358       .  A
N2466      C2737   1.359       .  A
N2466      C2490   1.437       .  S
C2467      N3006   1.359       .  A
C2467      C2468   1.369       .  A
C2467      C2557   1.479   1_556  S
C2468      C3009   1.364       .  A
C2468      H2471   1.080       .  S
C2469      C2738   1.364       .  A
C2469      C2470   1.389       .  A
C2469      H2472   1.077       .  S
C2470      C2572   1.486       .  S
O2473     Mg2475   2.146   1_655  S
O2473     Mg2751   2.146       .  S
O2473      C2508   1.231       .  S
C2474      O2511   1.271       .  A
Mg2475     O2789   2.267   1_455  S
O2476     Mg2501   2.170       .  S
O2477      C2508   1.265       .  A
C2478      O2480   1.275       .  A
C2478      O2492   1.281       .  A
O2479      C2507   1.274       .  A
O2479     Mg2481   2.326       .  S
O2480     Mg2512   2.308       .  S
Mg2481     O3013   2.146   1_554  S
Mg2481     O2487   2.179       .  S
Mg2481     O2495   2.321       .  S
Mg2481     O3023   2.310   1_554  S
C2482      O2520   1.271       .  A
C2482      O2488   1.278       .  A
O2483      C2490   1.273       .  A
O2483     Mg2751   2.310       .  S
C2485      H2510   1.081       .  S
C2485      O2499   1.232       .  S
C2485      O2500   1.267       .  A
O2488     Mg2788   2.329       .  S
C2489      N2971   1.465       .  S
C2489      O2502   1.282   1_556  A
C2489      O2494   1.273       .  A
C2490      O2517   1.277       .  A
Mg2491     O2498   2.156       .  S
Mg2491     O2769   2.175       .  S
Mg2491     O2762   2.354       .  S
Mg2491     O2493   2.319       .  S
Mg2491     O2520   2.265       .  S
O2492     Mg3031   2.354   1_554  S
O2493      C2497   1.272       .  A
O2494     Mg3041   2.314       .  S
O2495      C2514   1.272       .  A
O2496      C2516   1.275       .  A
O2498     Mg2782   2.187       .  S
O2498      C2509   1.238       .  S
O2499     Mg3031   2.175   1_554  S
O2499     Mg2518   2.203       .  S
O2500     Mg2512   2.302       .  S
Mg2501     O2764   2.314       .  S
H2503      C2508   1.081       .  S
H2506      C2509   1.081       .  S
Mg2512     O3038   2.187   1_554  S
C2514      N2999   1.441       .  S
C2514      O2519   1.271       .  A
O2515      C2516   1.265       .  A
Mg2518     O3028   2.329   1_554  S
O2519     Mg3015   2.267   1_654  S
C2521      C2525   1.542       .  S
C2521      C2665   1.519       .  S
C2522      H2529   1.086       .  S
C2522      C2523   1.359       .  D
C2523      C2524   1.556       .  S
C2523      C2677   1.483       .  S
C2524      C2528   1.545       .  S
C2524      H2530   1.105       .  S
C2525      H2531   1.083       .  S
C2525      C2526   1.363       .  D
C2526      C2608   1.484       .  S
C2527      H2532   1.086       .  S
C2527      C2528   1.359       .  D
C2528      C2596   1.485       .  S
C2533      C2537   1.549       .  S
C2533      C2560   1.535       .  S
C2534      H2541   1.087       .  S
C2534      C2535   1.360       .  D
C2535      C2536   1.551       .  S
C2535      C2692   1.501       .  S
C2536      C2540   1.536       .  S
C2536      H2542   1.099       .  S
C2537      H2543   1.078       .  S
C2537      C2538   1.373       .  D
C2538      C2620   1.489       .  S
C2539      H2544   1.087       .  S
C2539      C2540   1.364       .  D
C2540      C2629   1.509       .  S
C2545      C2546   1.542       .  S
C2545      C2551   1.537       .  S
C2545      C2549   1.540       .  S
C2545      C2656   1.543       .  S
C2546      H2553   1.083       .  S
C2546      C2547   1.380       .  D
C2547      C2548   1.563       .  S
C2547      C2644   1.517       .  S
C2548      C2552   1.536       .  S
C2548      C2550   1.526       .  S
C2548      H2554   1.106       .  S
C2549      H2555   1.087       .  S
C2549      C2550   1.364       .  D
C2550      C2569   1.481       .  S
C2551      H2556   1.083       .  S
C2551      C2552   1.351       .  D
C2552      C2584   1.477       .  S
C2557      C2558   1.408       .  A
C2557      C2562   1.405       .  A
C2558      C2559   1.409       .  A
C2558      H2567   1.084       .  S
C2559      C2560   1.417       .  A
C2559      S2563   1.798       .  S
C2560      C2561   1.405       .  A
C2561      C2562   1.385       .  A
S2563      H2566   1.408       .  S
C2569      C2570   1.407       .  A
C2569      C2574   1.405       .  A
C2570      C2571   1.405       .  A
C2570      H2579   1.082       .  S
C2571      C2572   1.411       .  A
C2571      S2575   1.801       .  S
C2572      C2573   1.408       .  A
C2573      C2574   1.387       .  A
C2573      H2580   1.083       .  S
C2574      S2576   1.797       .  S
S2575      H2578   1.406       .  S
S2576      H2577   1.406       .  S
C2581      C2582   1.399       .  A
C2581      C2586   1.424       .  A
C2582      C2583   1.396       .  A
C2582      H2591   1.079       .  S
C2583      C2584   1.419       .  A
C2583      S2587   1.800       .  S
C2584      C2585   1.393       .  A
C2585      C2586   1.397       .  A
C2585      H2592   1.085       .  S
C2586      S2588   1.794       .  S
S2587      H2590   1.405       .  S
S2588      H3129   1.406       .  S
H2589      S2858   1.406       .  S
C2593      C2594   1.405       .  A
C2593      C2598   1.408       .  A
C2594      C2595   1.402       .  A
C2594      H2603   1.084       .  S
C2595      C2596   1.412       .  A
C2595      S2599   1.801       .  S
C2596      C2597   1.401       .  A
C2597      C2598   1.405       .  A
S2599      H2602   1.408       .  S
C2605      C2606   1.402       .  A
C2605      C2610   1.411       .  A
C2606      C2607   1.399       .  A
C2606      H2615   1.084       .  S
C2607      C2608   1.409       .  A
C2608      C2609   1.406       .  A
C2609      C2610   1.404       .  A
C2609      H2616   1.079       .  S
C2610      S2612   1.805       .  S
S2611      H2614   1.407       .  S
S2612      H2613   1.404       .  S
C2617      C2618   1.407       .  A
C2617      C2622   1.410       .  A
C2618      C2619   1.399       .  A
C2618      H2627   1.084       .  S
C2619      C2620   1.415       .  A
C2619      S2623   1.802       .  S
C2620      C2621   1.405       .  A
C2621      C2622   1.397       .  A
C2622      S2624   1.792       .  S
S2623      H2626   1.393       .  S
S2624      H2625   1.396       .  S
C2629      C2630   1.410       .  A
C2629      C2634   1.419       .  A
C2630      C2631   1.397       .  A
C2631      C2632   1.411       .  A
C2631      S2635   1.794       .  S
C2632      C2633   1.412       .  A
C2633      C2634   1.408       .  A
C2633      H2640   1.084       .  S
C2634      S2636   1.803       .  S
S2635      H3178   1.407       .  S
S2636      H2637   1.406       .  S
H2638      S2905   1.407       .  S
C2641      C2642   1.404       .  A
C2641      C2646   1.415       .  A
C2642      C2643   1.404       .  A
C2642      H2651   1.082       .  S
C2643      C2644   1.421       .  A
C2643      S2647   1.807       .  S
C2644      C2645   1.414       .  A
C2645      C2646   1.414       .  A
C2645      H2652   1.082       .  S
C2646      S2648   1.802       .  S
S2647      H2650   1.407       .  S
S2648      H2649   1.407       .  S
C2653      C2654   1.398       .  A
C2653      C2658   1.396       .  A
C2654      C2655   1.410       .  A
C2654      H2663   1.083       .  S
C2655      C2656   1.428       .  A
C2655      S2659   1.808       .  S
C2656      C2657   1.418       .  A
C2657      C2658   1.387       .  A
C2657      H2664   1.075       .  S
C2658      S2660   1.803   1_554  S
S2659      H2662   1.407       .  S
S2660      H3201   1.404       .  S
H2661      S2930   1.404       .  S
C2665      C2666   1.408       .  A
C2665      C2670   1.417       .  A
C2666      C2667   1.387       .  A
C2666      H2675   1.082       .  S
C2667      C2668   1.398       .  A
C2667      S2941   1.795       .  S
C2668      C2669   1.396       .  A
C2669      C2670   1.394       .  A
C2669      H2676   1.075       .  S
C2670      S2672   1.805       .  S
S2671      C3207   1.795       .  S
S2671      H2674   1.401   1_556  S
S2672      H2673   1.406       .  S
C2677      C2678   1.394       .  A
C2677      C2682   1.417       .  A
C2678      C2679   1.391       .  A
C2679      C2680   1.417       .  A
C2679      S3223   1.810   1_554  S
C2680      C2681   1.399       .  A
C2681      C2682   1.400       .  A
C2681      H2688   1.084       .  S
C2682      S2684   1.801       .  S
S2683      C2949   1.810       .  S
S2683      H2686   1.402       .  S
S2684      H2685   1.405       .  S
C2689      C2690   1.406       .  A
C2689      C2694   1.409       .  A
C2690      C2691   1.399       .  A
C2690      H2699   1.084       .  S
C2691      C2692   1.413       .  A
C2691      S2695   1.802       .  S
C2692      C2693   1.414       .  A
C2693      C2694   1.403       .  A
C2693      H2700   1.083       .  S
C2694      S2696   1.804       .  S
S2695      H2698   1.406       .  S
S2696      H2697   1.404       .  S
N2701      C2975   1.369       .  A
N2701      C2702   1.373       .  A
N2701      C3029   1.465       .  S
C2702      C2703   1.380       .  A
C2702      C2959   1.480       .  S
C2703      C2974   1.351       .  A
C2703      H2706   1.083       .  S
C2704      C2705   1.381       .  A
C2704      H2707   1.083       .  S
C2705      C2950   1.468       .  S
N2708      C2982   1.354       .  A
N2708      C2709   1.349       .  A
N2708      C2752   1.440       .  S
C2709      C2710   1.380       .  A
C2709      C2938   1.454       .  S
C2710      C2981   1.370       .  A
C2710      H2713   1.083       .  S
C2711      C2712   1.383       .  A
C2711      H2714   1.083       .  S
C2712      C2923   1.466       .  S
N2715      C2716   1.374       .  A
N2715      C2748   1.457       .  S
C2716      C2717   1.381       .  A
C2716      C2902   1.492       .  S
C2717      H2720   1.083       .  S
C2718      C2987   1.359       .  A
C2718      C2719   1.384       .  A
C2718      H2721   1.083       .  S
C2719      N2985   1.375       .  A
C2719      C2911   1.505       .  S
N2722      C2996   1.357       .  A
N2722      C2723   1.355       .  A
N2722      C2786   1.433       .  S
C2723      C2724   1.386       .  A
C2723      C2887   1.485       .  S
C2724      C2995   1.367       .  A
C2724      H2727   1.081       .  S
C2725      C2726   1.379       .  A
C2725      H2728   1.083       .  S
C2726      C2875   1.476       .  S
N2729      C3003   1.361       .  A
N2729      C2730   1.361       .  A
N2729      C3054   1.441       .  S
C2730      C2731   1.380       .  A
C2730      C2863   1.484       .  S
C2731      C3002   1.365       .  A
C2731      H2734   1.081       .  S
C2732      C2733   1.379       .  A
C2732      H2735   1.073       .  S
C2733      C2851   1.492       .  S
N2736      C2740   1.358       .  A
N2736      C3007   1.359       .  A
N2736      C2760   1.437       .  S
C2737      C2738   1.369       .  A
C2737      C2827   1.479       .  S
C2738      H2741   1.080       .  S
C2739      C3008   1.364       .  A
C2739      C2740   1.389       .  A
C2739      H2742   1.077       .  S
C2740      C2842   1.486       .  S
O2743     Mg2745   2.146   1_655  S
O2743     Mg3021   2.146       .  S
O2743      C2778   1.231       .  S
C2744      O2781   1.271       .  A
Mg2745     O3059   2.267   1_455  S
O2746     Mg2771   2.170       .  S
O2747      C2778   1.265       .  A
C2748      O2750   1.275       .  A
C2748      O2762   1.281       .  A
O2749      C2777   1.274       .  A
O2749     Mg2751   2.326       .  S
O2750     Mg2782   2.308       .  S
Mg2751     O2757   2.179       .  S
Mg2751     O2765   2.321       .  S
C2752      O2790   1.271       .  A
C2752      O2758   1.278       .  A
O2753      C2760   1.273       .  A
O2753     Mg3021   2.310       .  S
C2755      H2780   1.081       .  S
C2755      O2769   1.232       .  S
C2755      O2770   1.267       .  A
O2758     Mg3058   2.329       .  S
C2759      O2772   1.282       .  A
C2759      O2764   1.273       .  A
C2760      O2787   1.277       .  A
Mg2761     O2768   2.156       .  S
Mg2761     O3039   2.175       .  S
Mg2761     O3032   2.354       .  S
Mg2761     O2763   2.319       .  S
Mg2761     O2790   2.265       .  S
O2763      C2767   1.272       .  A
O2765      C2784   1.272       .  A
O2766      C2786   1.275       .  A
O2768     Mg3052   2.187       .  S
O2768      C2779   1.238       .  S
O2769     Mg2788   2.203       .  S
O2770     Mg2782   2.302       .  S
Mg2771     O3034   2.314       .  S
H2773      C2778   1.081       .  S
H2776      C2779   1.081       .  S
C2784      O2789   1.271       .  A
O2785      C2786   1.265       .  A
C2791      C2795   1.542       .  S
C2791      C2935   1.519       .  S
C2792      H2799   1.086       .  S
C2792      C2793   1.359       .  D
C2793      C2794   1.556       .  S
C2793      C2947   1.483       .  S
C2794      C2798   1.545       .  S
C2794      H2800   1.105       .  S
C2795      H2801   1.083       .  S
C2795      C2796   1.363       .  D
C2796      C2878   1.484       .  S
C2797      H2802   1.086       .  S
C2797      C2798   1.359       .  D
C2798      C2866   1.485       .  S
C2803      C2807   1.549       .  S
C2803      C2830   1.535       .  S
C2804      H2811   1.087       .  S
C2804      C2805   1.360       .  D
C2805      C2806   1.551       .  S
C2805      C2962   1.501       .  S
C2806      C2810   1.536       .  S
C2806      H2812   1.099       .  S
C2807      H2813   1.078       .  S
C2807      C2808   1.373       .  D
C2808      C2890   1.489       .  S
C2809      H2814   1.087       .  S
C2809      C2810   1.364       .  D
C2810      C2899   1.509       .  S
C2815      C2816   1.542       .  S
C2815      C2821   1.537       .  S
C2815      C2819   1.540       .  S
C2815      C2926   1.543       .  S
C2816      H2823   1.083       .  S
C2816      C2817   1.380       .  D
C2817      C2818   1.563       .  S
C2817      C2914   1.517       .  S
C2818      C2822   1.536       .  S
C2818      C2820   1.526       .  S
C2818      H2824   1.106       .  S
C2819      H2825   1.087       .  S
C2819      C2820   1.364       .  D
C2820      C2839   1.481       .  S
C2821      H2826   1.083       .  S
C2821      C2822   1.351       .  D
C2822      C2854   1.477       .  S
C2827      C2828   1.408       .  A
C2827      C2832   1.405       .  A
C2828      C2829   1.409       .  A
C2828      H2837   1.084       .  S
C2829      C2830   1.417       .  A
C2829      S2833   1.798       .  S
C2830      C2831   1.405       .  A
C2831      C2832   1.385       .  A
S2833      H2836   1.408       .  S
C2839      C2840   1.407       .  A
C2839      C2844   1.405       .  A
C2840      C2841   1.405       .  A
C2840      H2849   1.082       .  S
C2841      C2842   1.411       .  A
C2841      S2845   1.801       .  S
C2842      C2843   1.408       .  A
C2843      C2844   1.387       .  A
C2843      H2850   1.083       .  S
C2844      S2846   1.797       .  S
S2845      H2848   1.406       .  S
S2846      H2847   1.406       .  S
C2851      C2852   1.399       .  A
C2851      C2856   1.424       .  A
C2852      C2853   1.396       .  A
C2852      H2861   1.079       .  S
C2853      C2854   1.419       .  A
C2853      S2857   1.800       .  S
C2854      C2855   1.393       .  A
C2855      C2856   1.397       .  A
C2855      H2862   1.085       .  S
C2856      S2858   1.794       .  S
S2857      H2860   1.405       .  S
H2859      S3128   1.406       .  S
C2863      C2864   1.405       .  A
C2863      C2868   1.408       .  A
C2864      C2865   1.402       .  A
C2864      H2873   1.084       .  S
C2865      C2866   1.412       .  A
C2865      S2869   1.801       .  S
C2866      C2867   1.401       .  A
C2867      C2868   1.405       .  A
S2869      H2872   1.408       .  S
C2875      C2876   1.402       .  A
C2875      C2880   1.411       .  A
C2876      C2877   1.399       .  A
C2876      H2885   1.084       .  S
C2877      C2878   1.409       .  A
C2878      C2879   1.406       .  A
C2879      C2880   1.404       .  A
C2879      H2886   1.079       .  S
C2880      S2882   1.805       .  S
S2881      H2884   1.407       .  S
S2882      H2883   1.404       .  S
C2887      C2888   1.407       .  A
C2887      C2892   1.410       .  A
C2888      C2889   1.399       .  A
C2888      H2897   1.084       .  S
C2889      C2890   1.415       .  A
C2889      S2893   1.802       .  S
C2890      C2891   1.405       .  A
C2891      C2892   1.397       .  A
C2892      S2894   1.792       .  S
S2893      H2896   1.393       .  S
S2894      H2895   1.396       .  S
C2899      C2900   1.410       .  A
C2899      C2904   1.419       .  A
C2900      C2901   1.397       .  A
C2901      C2902   1.411       .  A
C2901      S2905   1.794       .  S
C2902      C2903   1.412       .  A
C2903      C2904   1.408       .  A
C2903      H2910   1.085       .  S
C2904      S2906   1.803       .  S
S2906      H2907   1.406       .  S
H2908      S3175   1.407       .  S
C2911      C2912   1.404       .  A
C2911      C2916   1.415       .  A
C2912      C2913   1.404       .  A
C2912      H2921   1.082       .  S
C2913      C2914   1.421       .  A
C2913      S2917   1.807       .  S
C2914      C2915   1.414       .  A
C2915      C2916   1.414       .  A
C2915      H2922   1.082       .  S
C2916      S2918   1.802       .  S
S2917      H2920   1.407       .  S
S2918      H2919   1.407       .  S
C2923      C2924   1.398       .  A
C2923      C2928   1.396       .  A
C2924      C2925   1.410       .  A
C2924      H2933   1.083       .  S
C2925      C2926   1.428       .  A
C2925      S2929   1.808       .  S
C2926      C2927   1.418       .  A
C2927      C2928   1.387       .  A
C2927      H2934   1.075       .  S
C2928      S2930   1.803       .  S
S2929      H2932   1.407       .  S
H2931      S3200   1.404       .  S
C2935      C2936   1.408       .  A
C2935      C2940   1.417       .  A
C2936      C2937   1.387       .  A
C2936      H2945   1.082       .  S
C2937      C2938   1.398       .  A
C2937      S3211   1.795       .  S
C2938      C2939   1.396       .  A
C2939      C2940   1.394       .  A
C2939      H2946   1.075       .  S
C2940      S2942   1.805       .  S
S2941      H2944   1.401       .  S
S2942      H2943   1.406       .  S
C2947      C2948   1.394       .  A
C2947      C2952   1.417       .  A
C2948      C2949   1.391       .  A
C2949      C2950   1.417       .  A
C2950      C2951   1.399       .  A
C2951      C2952   1.400       .  A
C2951      H2958   1.084       .  S
C2952      S2954   1.801       .  S
S2953      C3219   1.810       .  S
S2953      H2956   1.402       .  S
S2954      H2955   1.405       .  S
C2959      C2960   1.406       .  A
C2959      C2964   1.409       .  A
C2960      C2961   1.399       .  A
C2960      H2969   1.084       .  S
C2961      C2962   1.413       .  A
C2961      S2965   1.802       .  S
C2962      C2963   1.414       .  A
C2963      C2964   1.403       .  A
C2963      H2970   1.083       .  S
C2964      S2966   1.804       .  S
S2965      H2968   1.406       .  S
S2966      H2967   1.404       .  S
N2971      C2972   1.373       .  A
C2972      C2973   1.380       .  A
C2972      C3229   1.479       .  S
C2973      H2976   1.083       .  S
C2974      C2975   1.381       .  A
C2974      H2977   1.083       .  S
C2975      C3220   1.468       .  S
N2978      C2979   1.349       .  A
N2978      C3022   1.440       .  S
C2979      C2980   1.380       .  A
C2979      C3208   1.454       .  S
C2980      H2983   1.083       .  S
C2981      C2982   1.383       .  A
C2981      H2984   1.083       .  S
C2982      C3193   1.466       .  S
N2985      C2986   1.374       .  A
N2985      C3018   1.457       .  S
C2986      C2987   1.381       .  A
C2986      C3172   1.492       .  S
C2987      H2990   1.083       .  S
C2988      C2989   1.384       .  A
C2988      H2991   1.083       .  S
C2989      C3181   1.505   1_554  S
N2992      C2993   1.355   1_554  A
N2992      C3056   1.433       .  S
C2993      C2994   1.386   1_556  A
C2993      C3157   1.485       .  S
C2994      H2997   1.081       .  S
C2995      C2996   1.379       .  A
C2995      H2998   1.083       .  S
C2996      C3145   1.476       .  S
N2999      C3000   1.361   1_554  A
C3000      C3001   1.380   1_556  A
C3000      C3133   1.484       .  S
C3001      H3004   1.081   1_554  S
C3002      C3003   1.379       .  A
C3002      H3005   1.073       .  S
C3003      C3121   1.492       .  S
N3006      C3010   1.358       .  A
N3006      C3030   1.437       .  S
C3007      C3008   1.369       .  A
C3007      C3097   1.479       .  S
C3008      H3011   1.080       .  S
C3009      C3010   1.389       .  A
C3009      H3012   1.077       .  S
C3010      C3112   1.486       .  S
O3013     Mg3015   2.146   1_655  S
O3013      C3048   1.231       .  S
C3014      O3051   1.271       .  A
O3016     Mg3041   2.170       .  S
O3017      C3048   1.265       .  A
C3018      O3020   1.275       .  A
C3018      O3032   1.281       .  A
O3019      C3047   1.274       .  A
O3019     Mg3021   2.326       .  S
O3020     Mg3052   2.308       .  S
Mg3021     O3027   2.179       .  S
Mg3021     O3035   2.321       .  S
C3022      O3060   1.271       .  A
C3022      O3028   1.278       .  A
O3023      C3030   1.273       .  A
C3025      H3050   1.081       .  S
C3025      O3039   1.232       .  S
C3025      O3040   1.267       .  A
C3029      O3042   1.282       .  A
C3029      O3034   1.273       .  A
C3030      O3057   1.277       .  A
Mg3031     O3038   2.156       .  S
Mg3031     O3033   2.319       .  S
Mg3031     O3060   2.265       .  S
O3033      C3037   1.272       .  A
O3035      C3054   1.272       .  A
O3036      C3056   1.275       .  A
O3038      C3049   1.238       .  S
O3039     Mg3058   2.203       .  S
O3040     Mg3052   2.302       .  S
H3043      C3048   1.081       .  S
H3046      C3049   1.081       .  S
C3054      O3059   1.271       .  A
O3055      C3056   1.265   1_556  A
C3061      C3065   1.542       .  S
C3061      C3205   1.519       .  S
C3062      H3069   1.086       .  S
C3062      C3063   1.359       .  D
C3063      C3064   1.556       .  S
C3063      C3217   1.483       .  S
C3064      C3068   1.545       .  S
C3064      H3070   1.105       .  S
C3065      H3071   1.083       .  S
C3065      C3066   1.363       .  D
C3066      C3148   1.484       .  S
C3067      H3072   1.086       .  S
C3067      C3068   1.359       .  D
C3068      C3136   1.485       .  S
C3073      C3077   1.549       .  S
C3073      C3100   1.535       .  S
C3074      H3081   1.087       .  S
C3074      C3075   1.360       .  D
C3075      C3076   1.551       .  S
C3075      C3232   1.501       .  S
C3076      C3080   1.536       .  S
C3076      H3082   1.099       .  S
C3077      H3083   1.078       .  S
C3077      C3078   1.373       .  D
C3078      C3160   1.489       .  S
C3079      H3084   1.087       .  S
C3079      C3080   1.364       .  D
C3080      C3169   1.509       .  S
C3085      C3086   1.542       .  S
C3085      C3091   1.537       .  S
C3085      C3089   1.540       .  S
C3085      C3196   1.543       .  S
C3086      H3093   1.083       .  S
C3086      C3087   1.380       .  D
C3087      C3088   1.563       .  S
C3087      C3184   1.517       .  S
C3088      C3092   1.536       .  S
C3088      C3090   1.526       .  S
C3088      H3094   1.106       .  S
C3089      H3095   1.087       .  S
C3089      C3090   1.364       .  D
C3090      C3109   1.481       .  S
C3091      H3096   1.083       .  S
C3091      C3092   1.351       .  D
C3092      C3124   1.477       .  S
C3097      C3098   1.408       .  A
C3097      C3102   1.405       .  A
C3098      C3099   1.409       .  A
C3098      H3107   1.084       .  S
C3099      C3100   1.417       .  A
C3099      S3103   1.798       .  S
C3100      C3101   1.405       .  A
C3101      C3102   1.385       .  A
S3103      H3106   1.408       .  S
C3109      C3110   1.407       .  A
C3109      C3114   1.405       .  A
C3110      C3111   1.405       .  A
C3110      H3119   1.082       .  S
C3111      C3112   1.411       .  A
C3111      S3115   1.801       .  S
C3112      C3113   1.408       .  A
C3113      C3114   1.387       .  A
C3113      H3120   1.083       .  S
C3114      S3116   1.797       .  S
S3115      H3118   1.406       .  S
S3116      H3117   1.406       .  S
C3121      C3122   1.399       .  A
C3121      C3126   1.424       .  A
C3122      C3123   1.396       .  A
C3122      H3131   1.079       .  S
C3123      C3124   1.419       .  A
C3123      S3127   1.800       .  S
C3124      C3125   1.393       .  A
C3125      C3126   1.397       .  A
C3125      H3132   1.085       .  S
C3126      S3128   1.794       .  S
S3127      H3130   1.405       .  S
C3133      C3134   1.405       .  A
C3133      C3138   1.408       .  A
C3134      C3135   1.402       .  A
C3134      H3143   1.084       .  S
C3135      C3136   1.412       .  A
C3135      S3139   1.801       .  S
C3136      C3137   1.401       .  A
C3137      C3138   1.405       .  A
S3139      H3142   1.408       .  S
C3145      C3146   1.402       .  A
C3145      C3150   1.411       .  A
C3146      C3147   1.399       .  A
C3146      H3155   1.084       .  S
C3147      C3148   1.409       .  A
C3148      C3149   1.406       .  A
C3149      C3150   1.404       .  A
C3149      H3156   1.079       .  S
C3150      S3152   1.805       .  S
S3151      H3154   1.407       .  S
S3152      H3153   1.404       .  S
C3157      C3158   1.407       .  A
C3157      C3162   1.410       .  A
C3158      C3159   1.399       .  A
C3158      H3167   1.084       .  S
C3159      C3160   1.415       .  A
C3159      S3163   1.802       .  S
C3160      C3161   1.405       .  A
C3161      C3162   1.397       .  A
C3162      S3164   1.792       .  S
S3163      H3166   1.393       .  S
S3164      H3165   1.396       .  S
C3169      C3170   1.410       .  A
C3169      C3174   1.419       .  A
C3170      C3171   1.397       .  A
C3171      C3172   1.411       .  A
C3171      S3175   1.794       .  S
C3172      C3173   1.412       .  A
C3173      C3174   1.408       .  A
C3173      H3180   1.084       .  S
C3174      S3176   1.803       .  S
S3176      H3177   1.406       .  S
C3181      C3182   1.404       .  A
C3181      C3186   1.415       .  A
C3182      C3183   1.404       .  A
C3182      H3191   1.082       .  S
C3183      C3184   1.421       .  A
C3183      S3187   1.807       .  S
C3184      C3185   1.414       .  A
C3185      C3186   1.414       .  A
C3185      H3192   1.082       .  S
C3186      S3188   1.802       .  S
S3187      H3190   1.407       .  S
S3188      H3189   1.407       .  S
C3193      C3194   1.398       .  A
C3193      C3198   1.396       .  A
C3194      C3195   1.410       .  A
C3194      H3203   1.083       .  S
C3195      C3196   1.428       .  A
C3195      S3199   1.808       .  S
C3196      C3197   1.418       .  A
C3197      C3198   1.387       .  A
C3197      H3204   1.075       .  S
C3198      S3200   1.803       .  S
S3199      H3202   1.407       .  S
C3205      C3206   1.408       .  A
C3205      C3210   1.417       .  A
C3206      C3207   1.387       .  A
C3206      H3215   1.082       .  S
C3207      C3208   1.398       .  A
C3208      C3209   1.396       .  A
C3209      C3210   1.394       .  A
C3209      H3216   1.075       .  S
C3210      S3212   1.805       .  S
S3211      H3214   1.401       .  S
S3212      H3213   1.406       .  S
C3217      C3218   1.394       .  A
C3217      C3222   1.417       .  A
C3218      C3219   1.391       .  A
C3219      C3220   1.417       .  A
C3220      C3221   1.399       .  A
C3221      C3222   1.400       .  A
C3221      H3228   1.084       .  S
C3222      S3224   1.801       .  S
S3223      H3226   1.402       .  S
S3224      H3225   1.405       .  S
C3229      C3230   1.406       .  A
C3229      C3234   1.409       .  A
C3230      C3231   1.399       .  A
C3230      H3239   1.084       .  S
C3231      C3232   1.413       .  A
C3231      S3235   1.802       .  S
C3232      C3233   1.414       .  A
C3233      C3234   1.403       .  A
C3233      H3240   1.083       .  S
C3234      S3236   1.804       .  S
S3235      H3238   1.406       .  S
S3236      H3237   1.404       .  S
