geometry optimzed in LAMMPS
_audit_creation_date              2020-11-30 
_audit_creation_method            'lammps2cif' 
_symmetry_space_group_name_H-M    'P1' 
_symmetry_Int_Tables_number       1 
_symmetry_cell_setting            triclinic 
loop_ 
_symmetry_equiv_pos_as_xyz 
  x,y,z 
_cell_length_a                    31.94705868 
_cell_length_b                    31.984459809898404 
_cell_length_c                    25.973384274656972 
_cell_angle_alpha                 90.2321222114055 
_cell_angle_beta                  90.11659759401073 
_cell_angle_gamma                 120.02193241896647 
loop_ 
_atom_site_label 
_atom_site_type_symbol 
_atom_site_fract_x 
_atom_site_fract_y 
_atom_site_fract_z 
_atom_site_charge 
C1          C  0.23572586  0.26916724  0.99364005     0.03600
C2          C  0.25825816  0.28916563  0.04119941    -0.12600
C3          C  0.30478029  0.32974991  0.04273328     0.01100
C4          C  0.33622718  0.34963437  0.33126343    -0.11100
C5          C  0.31273371  0.32792213  0.28490737     0.03600
C6          C  0.26832393  0.28461827  0.28599446    -0.10500
H7          H  0.23934569  0.27378825  0.07688725     0.09200
H8          H  0.36935590  0.38432887  0.33045968     0.06700
H9          H  0.24938974  0.26830276  0.25031453     0.06500
C10         C  0.48798813  0.58405894  0.00152772     0.03600
C11         C  0.46512671  0.56117392  0.04756828    -0.12600
C12         C  0.41994727  0.51890768  0.04632214     0.01100
C13         C  0.39693194  0.50022171  0.99897919    -0.11100
C14         C  0.42758771  0.51733368  0.28444039     0.03600
C15         C  0.47299857  0.55945259  0.28378559    -0.10500
H16         H  0.48326017  0.57515316  0.08418189     0.09200
H17         H  0.36347189  0.46580066  0.99788813     0.06700
H18         H  0.49103437  0.57370339  0.24741910     0.06500
O19         O  0.42632203  0.46902762  0.10864873    -0.72500
O20         O  0.37014052  0.36746989  0.21812896    -0.73500
O21         O  0.36621186  0.36825505  0.10656301    -0.62100
O22         O  0.43041398  0.46855684  0.21756239    -0.70500
O23         O  0.36529138  0.47655274  0.22216784    -0.70100
O24         O  0.30102393  0.37610428  0.11156015    -0.61300
O25         O  0.30506611  0.37565651  0.22079044    -0.73800
O26         O  0.36110775  0.47700391  0.11111664    -0.72600
Cu27       Cu  0.40044958  0.41785701  0.16258499     1.04600
Cu28       Cu  0.33089444  0.42666602  0.16656153     1.04300
C29         C  0.40202709  0.48789430  0.09172984     0.93700
C30         C  0.32947144  0.35699926  0.23794840     0.92800
C31         C  0.32431377  0.35793891  0.09027446     0.85000
C32         C  0.40736758  0.48728268  0.23821355     0.91300
C33         C  0.52979273  0.97245799  0.99374318     0.03600
C34         C  0.51180190  0.97876428  0.04059212    -0.12600
C35         C  0.47133878  0.98469988  0.04129153     0.01100
C36         C  0.44996968  0.98639560  0.99478126    -0.11100
C37         C  0.47314392  0.98036103  0.28250860     0.03600
C38         C  0.51385691  0.97463723  0.28184320    -0.10500
H39         H  0.52755067  0.97625997  0.07664912     0.09200
H40         H  0.41669123  0.98771038  0.99548592     0.06700
H41         H  0.52888880  0.97212308  0.24534892     0.06500
C42         C  0.21524437  0.90121915  0.32789841     0.03600
C43         C  0.23861694  0.91139298  0.04624100    -0.12600
C44         C  0.28170883  0.91015860  0.04409091     0.01100
C45         C  0.30339500  0.90244444  0.32759941    -0.11100
C46         C  0.28332363  0.90607765  0.28119036     0.03600
C47         C  0.23923194  0.90553524  0.28119011    -0.10500
H48         H  0.22502965  0.91525342  0.08312052     0.09200
H49         H  0.33870770  0.90530439  0.32767110     0.06700
H50         H  0.22403978  0.90909394  0.24523426     0.06500
O51         O  0.43349588  0.00266079  0.21933404    -0.72500
O52         O  0.33172298  0.96372419  0.10919285    -0.73500
O53         O  0.33229482  0.96180968  0.21810425    -0.62100
O54         O  0.43275045  0.00486976  0.10744975    -0.70500
O55         O  0.42431054  0.93150827  0.10651790    -0.70100
O56         O  0.32419255  0.88858708  0.21620055    -0.61300
O57         O  0.32378665  0.89061146  0.10591289    -0.73800
O58         O  0.42496708  0.92935845  0.21527127    -0.72600
Cu59       Cu  0.38305438  0.98600244  0.16362267     1.04600
Cu60       Cu  0.37401157  0.90752573  0.16089939     1.04300
C61         C  0.44379326  0.97122709  0.23582003     0.93700
C62         C  0.31279290  0.92146258  0.08946825     0.92800
C63         C  0.31341373  0.91882868  0.23525170     0.85000
C64         C  0.44272373  0.97403954  0.08828853     0.91300
C65         C  0.91264092  0.30436728  0.34455501     0.03600
C66         C  0.91654949  0.33030590  0.05083292    -0.12600
C67         C  0.92211929  0.37655886  0.05270808     0.01100
C68         C  0.91816843  0.39457116  0.34122059    -0.11100
C69         C  0.91598271  0.37065975  0.29514521     0.03600
C70         C  0.91350049  0.32560581  0.29682118    -0.10500
H71         H  0.91062133  0.31006354  0.08607334     0.09200
H72         H  0.91798803  0.42838230  0.33996940     0.06700
H73         H  0.91076688  0.30649733  0.26128951     0.06500
C74         C  0.84983694  0.55994209  0.01175238     0.03600
C75         C  0.84841310  0.53595822  0.05772305    -0.12600
C76         C  0.84726476  0.49154863  0.05594733     0.01100
C77         C  0.84608848  0.47045297  0.00833710    -0.11100
C78         C  0.84064284  0.48512187  0.29276954     0.03600
C79         C  0.84134880  0.52912168  0.29061253    -0.10500
H80         H  0.84896552  0.55199784  0.09471273     0.09200
H81         H  0.84741106  0.43721418  0.00703861     0.06700
H82         H  0.84313443  0.54532108  0.25351494     0.06500
O83         O  0.93767528  0.43088061  0.23087096    -0.72500
O84         O  0.89944007  0.49448928  0.12204089    -0.73500
O85         O  0.89655401  0.49067331  0.23061799    -0.62100
O86         O  0.94055869  0.43466494  0.11931943    -0.70500
O87         O  0.86743854  0.36928990  0.11753821    -0.70100
O88         O  0.82318311  0.42561476  0.22829317    -0.61300
O89         O  0.82636178  0.42924926  0.11748805    -0.73800
O90         O  0.86448823  0.36577754  0.22694666    -0.72600
Cu91       Cu  0.92119766  0.46482889  0.17584656     1.04600
Cu92       Cu  0.84279528  0.39521116  0.17243246     1.04300
C93         C  0.90641690  0.38920963  0.24751204     0.93700
C94         C  0.85739276  0.47138206  0.10177428     0.92800
C95         C  0.85344245  0.46663599  0.24757355     0.85000
C96         C  0.91017804  0.39382949  0.09967961     0.91300
C97         C  0.85948808  0.88049542  0.01336307     0.02700
C98         C  0.90489321  0.92303778  0.00919297     0.02700
C99         C  0.90767923  0.96847686  0.00648820     0.02700
C100        C  0.86511168  0.97165700  0.00929312     0.02700
C101        C  0.81949802  0.92890940  0.01349772     0.02700
C102        C  0.81675786  0.88333828  0.01511713     0.02700
C103        C  0.83450029  0.75442538  0.28716366    -0.01600
C104        C  0.84678452  0.73600741  0.33018636     0.07000
C105        C  0.84454780  0.75974443  0.05518326    -0.07500
C106        C  0.84623940  0.80425090  0.05754890     0.04500
C107        C  0.85668943  0.83259826  0.01286670    -0.15100
C108        C  0.83900635  0.80022891  0.29003643    -0.08100
C109        C  0.84330088  0.68818491  0.32946166     0.05400
C110        C  0.88491106  0.69054677  0.04061194    -0.09200
C111        C  0.88467058  0.64668892  0.04255549     0.00400
C112        C  0.85097919  0.60698358  0.01252503     0.00300
C113        C  0.80841995  0.60593812  0.36053234    -0.12800
C114        C  0.80827391  0.64957420  0.35877353     0.00700
C115        C  0.92054014  0.64417408  0.07421727     0.40000
C116        C  0.77193944  0.65410082  0.38725301     0.36700
C117        C  0.81726373  0.72703216  0.23991293     0.36400
C118        C  0.83762625  0.81998511  0.10640353     0.37200
N119        N  0.94922424  0.64225201  0.09980422    -0.43600
N120        N  0.74298130  0.65799001  0.41007041    -0.44100
N121        N  0.83031756  0.83160390  0.14603518    -0.41400
N122        N  0.80358518  0.70520147  0.20192864    -0.42900
H123        H  0.82950566  0.81438312  0.25695157     0.13300
H124        H  0.83625047  0.73795738  0.08961670     0.09800
H125        H  0.91100759  0.72097353  0.06350993     0.10800
H126        H  0.78107029  0.57615674  0.38271939     0.16700
C127        C  0.85207777  0.17330824  0.01160874    -0.01600
C128        C  0.89050371  0.16409403  0.00496045     0.07000
C129        C  0.94117849  0.20301577  0.32734066    -0.07500
C130        C  0.94586912  0.24892923  0.32533894     0.04500
C131        C  0.90964072  0.25658194  0.34668420    -0.14800
C132        C  0.86107834  0.22085276  0.01011543    -0.08100
C133        C  0.88262854  0.11444164  0.00729323     0.05400
C134        C  0.89466301  0.09573715  0.29879334    -0.09200
C135        C  0.88860360  0.04950383  0.29356542     0.00400
C136        C  0.86905118  0.02024507  0.00836870     0.00300
C137        C  0.89056647  0.05152688  0.05053857    -0.12800
C138        C  0.89727835  0.09824758  0.05036890     0.00700
C139        C  0.89005373  0.03221842  0.24270204     0.40000
C140        C  0.91839660  0.12869912  0.09508857     0.36700
C141        C  0.80358594  0.13469744  0.02178879     0.36400
C142        C  0.98849875  0.28774176  0.30187370     0.37200
N143        N  0.89204118  0.01923205  0.20165345    -0.43600
N144        N  0.93512984  0.15315434  0.13095685    -0.44100
N145        N  0.02267035  0.31881688  0.28303969    -0.41400
N146        N  0.76480213  0.10374049  0.03025267    -0.42900
H147        H  0.83161356  0.22799856  0.01592666     0.13300
H148        H  0.96889418  0.19730025  0.31031568     0.09800
H149        H  0.89870443  0.11679428  0.26460532     0.10800
H150        H  0.90215706  0.03930895  0.08365369     0.16700
C151        C  0.01231166  0.91464930  0.05781084    -0.01600
C152        C  0.03697082  0.91746711  0.01166798     0.07000
C153        C  0.00968810  0.89430065  0.29059621    -0.07500
C154        C  0.96740518  0.89690521  0.28933894     0.04500
C155        C  0.94996463  0.92010615  0.00895502    -0.14800
C156        C  0.96912897  0.91597075  0.05604978    -0.08100
C157        C  0.08323201  0.91680513  0.01091496     0.05400
C158        C  0.08552725  0.86730628  0.35549558    -0.09200
C159        C  0.12769126  0.86439094  0.35298077     0.00400
C160        C  0.16913404  0.90139146  0.32862625     0.00300
C161        C  0.16701430  0.95071893  0.98383616    -0.12800
C162        C  0.12519081  0.95427784  0.98769210     0.00700
C163        C  0.12699306  0.82224633  0.37378084     0.40000
C164        C  0.12658015  0.99729821  0.96869133     0.36700
C165        C  0.03100290  0.91149680  0.10740077     0.36400
C166        C  0.94028949  0.88441326  0.24195023     0.37200
N167        N  0.12637185  0.78835213  0.39017432    -0.43600
N168        N  0.12766399  0.03177532  0.95351131    -0.44100
N169        N  0.91955347  0.87446074  0.20322596    -0.41400
N170        N  0.04571687  0.90876019  0.14724021    -0.42900
H171        H  0.95053446  0.91438361  0.09152542     0.13300
H172        H  0.02084313  0.88265905  0.25659390     0.09800
H173        H  0.05360606  0.83884859  0.37403129     0.10800
H174        H  0.19909951  0.97965027  0.96604371     0.16700
C175        C  0.72723264  0.94738896  0.28020131    -0.01600
C176        C  0.70271212  0.94745839  0.32533911     0.07000
C177        C  0.71924992  0.95605501  0.04601816    -0.07500
C178        C  0.76052476  0.95194026  0.05150158     0.04500
C179        C  0.77418932  0.93135984  0.01143418    -0.14800
C180        C  0.76874435  0.94317757  0.28387086    -0.08100
C181        C  0.65924830  0.95295916  0.32383102     0.05400
C182        C  0.60714956  0.91608759  0.02254141    -0.09200
C183        C  0.56729603  0.92295288  0.02121750     0.00400
C184        C  0.57002468  0.96223936  0.99363574     0.00300
C185        C  0.62052435  0.00102807  0.31031520    -0.12800
C186        C  0.66205199  0.99671219  0.30912290     0.00700
C187        C  0.52372044  0.88859998  0.04739801     0.40000
C188        C  0.70740829  0.03806873  0.29431352     0.36700
C189        C  0.70926201  0.94947422  0.22979946     0.36400
C190        C  0.78735947  0.96821749  0.09897376     0.37200
N191        N  0.48877237  0.86107465  0.06830936    -0.43600
N192        N  0.74379054  0.07114909  0.28242017    -0.44100
N193        N  0.80794046  0.98109432  0.13767288    -0.41400
N194        N  0.69461927  0.95080124  0.18941444    -0.42900
H195        H  0.78749459  0.94302194  0.24917607     0.13300
H196        H  0.70892562  0.97217890  0.07668189     0.09800
H197        H  0.60534730  0.88632183  0.04425076     0.10800
H198        H  0.62289368  0.03482040  0.29929393     0.16700
C199        C  0.69970264  0.78756723  0.28715449    -0.01600
C200        C  0.67959559  0.75939667  0.33149532     0.07000
C201        C  0.69191082  0.78066625  0.05202634    -0.07500
C202        C  0.73709349  0.82256840  0.05623595     0.04500
C203        C  0.76880233  0.83819029  0.01374906    -0.14800
C204        C  0.74609785  0.82809882  0.28943045    -0.08100
C205        C  0.63189069  0.71482864  0.33030920     0.05400
C206        C  0.62194054  0.66843245  0.02694976    -0.09200
C207        C  0.57636810  0.62670075  0.02669434     0.00400
C208        C  0.53692604  0.62717052  0.00252327     0.00300
C209        C  0.54655531  0.66975013  0.35157950    -0.12800
C210        C  0.59072005  0.71317322  0.35202143     0.00700
C211        C  0.57133573  0.58360730  0.05026097     0.40000
C212        C  0.59302416  0.75557790  0.37470113     0.36700
C213        C  0.67315298  0.77576483  0.23922981     0.36400
C214        C  0.74975410  0.84825661  0.10468550     0.37200
N215        N  0.56719043  0.54906363  0.06923259    -0.43600
N216        N  0.59488680  0.78953316  0.39297056    -0.44100
N217        N  0.75893959  0.86777251  0.14419394    -0.41400
N218        N  0.65175487  0.76638849  0.20088123    -0.42900
H219        H  0.76179730  0.84940288  0.25510492     0.13300
H220        H  0.66762149  0.76857334  0.08469903     0.09800
H221        H  0.65219619  0.66809297  0.04557298     0.10800
H222        H  0.51479161  0.66860633  0.36795496     0.16700
C223        C  0.03033374  0.07250927  0.04412586    -0.01600
C224        C  0.04582166  0.09906041  0.99800356     0.07000
C225        C  0.04066696  0.06660074  0.29140492    -0.07500
C226        C  0.99450936  0.02576822  0.28861105     0.04500
C227        C  0.95568069  0.01317123  0.00209286    -0.14800
C228        C  0.98535680  0.03017154  0.04592862    -0.08100
C229        C  0.09323033  0.14407423  0.99453314     0.05400
C230        C  0.14803151  0.13247626  0.32472599    -0.09200
C231        C  0.19388962  0.17385661  0.32266066     0.00400
C232        C  0.18651679  0.22619857  0.99203292     0.00300
C233        C  0.14974583  0.22641922  0.02137856    -0.12800
C234        C  0.10327215  0.18598447  0.02245322     0.00700
C235        C  0.23494643  0.16882045  0.30901726     0.40000
C236        C  0.06620819  0.18867216  0.05147348     0.36700
C237        C  0.06056772  0.08723831  0.08958448     0.36400
C238        C  0.97749543  0.00266701  0.23914856     0.37200
N239        N  0.26790440  0.16484812  0.29814516    -0.43600
N240        N  0.03655348  0.19106249  0.07458040    -0.44100
N241        N  0.96492977  0.98523349  0.19881339    -0.41400
N242        N  0.08486367  0.09897644  0.12597116    -0.42900
H243        H  0.97324751  0.01020859  0.08163090     0.13300
H244        H  0.06225218  0.07987523  0.25677791     0.09800
H245        H  0.14399016  0.09752115  0.31582398     0.10800
H246        H  0.15731541  0.25841055  0.04329117     0.16700
C247        C  0.24704872  0.26381254  0.33335822     0.03600
C248        C  0.26927933  0.28767611  0.37951938    -0.12600
C249        C  0.31395349  0.33057384  0.37854311     0.01100
C250        C  0.33705645  0.35239388  0.66463149    -0.11100
C251        C  0.31468471  0.33201230  0.61749232     0.03600
C252        C  0.26976871  0.28938460  0.61677064    -0.10500
H253        H  0.25131451  0.27349751  0.41594376     0.09200
H254        H  0.37045093  0.38688818  0.66512215     0.06700
H255        H  0.25164693  0.27424563  0.58040434     0.06500
C256        C  0.49541807  0.58275647  0.33023229     0.03600
C257        C  0.47329157  0.56219147  0.37730916    -0.12600
C258        C  0.42819856  0.51982132  0.37793218     0.01100
C259        C  0.40470386  0.49866985  0.33149311    -0.11100
C260        C  0.42915124  0.52196302  0.61862065     0.03600
C261        C  0.47461524  0.56404816  0.61943488    -0.10500
H262        H  0.49191854  0.57812885  0.41324340     0.09200
H263        H  0.37081309  0.46466344  0.33208627     0.06700
H264        H  0.49368282  0.57873780  0.58365160     0.06500
O265        O  0.43423701  0.47297092  0.44401488    -0.72500
O266        O  0.37477767  0.37248859  0.55371719    -0.73500
O267        O  0.37451210  0.37211607  0.44252033    -0.62100
O268        O  0.43456726  0.47352696  0.55311580    -0.70500
O269        O  0.36919508  0.48126780  0.55385810    -0.70100
O270        O  0.30905163  0.37971267  0.44350115    -0.61300
O271        O  0.30942508  0.38029773  0.55251385    -0.73800
O272        O  0.36874333  0.48054017  0.44256716    -0.72600
Cu273      Cu  0.40675684  0.42241192  0.49835891     1.04600
Cu274      Cu  0.33689574  0.43086673  0.49812431     1.04300
C275        C  0.41013988  0.49113816  0.42480827     0.93700
C276        C  0.33330735  0.36174565  0.57136840     0.92800
C277        C  0.33293247  0.36113054  0.42461552     0.85000
C278        C  0.41069554  0.49215121  0.57193709     0.91300
C279        C  0.53339408  0.96909968  0.32806423     0.03600
C280        C  0.51074279  0.96748443  0.37502484    -0.12600
C281        C  0.47050268  0.97411398  0.37597369     0.01100
C282        C  0.45300051  0.98222460  0.32975385    -0.11100
C283        C  0.46651504  0.97161565  0.61684017     0.03600
C284        C  0.50700418  0.96581050  0.61730167    -0.10500
H285        H  0.52386920  0.96028237  0.41050067     0.09200
H286        H  0.42005589  0.98416413  0.33008828     0.06700
H287        H  0.52211673  0.96225640  0.58130087     0.06500
C288        C  0.21170679  0.89947551  0.65915505     0.03600
C289        C  0.23726167  0.90065114  0.37455262    -0.12600
C290        C  0.28140018  0.90148668  0.37430707     0.01100
C291        C  0.29767126  0.89634144  0.66120305    -0.11100
C292        C  0.27853706  0.89996217  0.61394554     0.03600
C293        C  0.23558865  0.90168280  0.61297841    -0.10500
H294        H  0.22096994  0.90133594  0.41089203     0.09200
H295        H  0.33235960  0.89786373  0.66212596     0.06700
H296        H  0.22125724  0.90556918  0.57657709     0.06500
O297        O  0.42848570  0.99343175  0.55202158    -0.72500
O298        O  0.32931583  0.95432284  0.44031106    -0.73500
O299        O  0.32794895  0.95376450  0.54939494    -0.62100
O300        O  0.43008781  0.99395927  0.44043327    -0.70500
O301        O  0.42087758  0.92034093  0.44068138    -0.70100
O302        O  0.31911383  0.88027059  0.54991325    -0.61300
O303        O  0.32000388  0.88059131  0.43892070    -0.73800
O304        O  0.41953030  0.91986163  0.54981449    -0.72600
Cu305      Cu  0.37942079  0.97652968  0.49552463     1.04600
Cu306      Cu  0.36947167  0.89767472  0.49479708     1.04300
C307        C  0.43804140  0.96194377  0.56975378     0.93700
C308        C  0.31025568  0.91190279  0.42112082     0.92800
C309        C  0.30880445  0.91125006  0.56795079     0.85000
C310        C  0.44028382  0.96291399  0.42222134     0.91300
C311        C  0.91775405  0.31279210  0.67405912     0.03600
C312        C  0.91122481  0.32723695  0.39034968    -0.12600
C313        C  0.91399825  0.37233268  0.38870436     0.01100
C314        C  0.92535610  0.40402685  0.67370051    -0.11100
C315        C  0.91922500  0.37927259  0.62727080     0.03600
C316        C  0.91504706  0.33363868  0.62753013    -0.10500
H317        H  0.90736535  0.30971924  0.42708417     0.09200
H318        H  0.92536879  0.43795780  0.67364557     0.06700
H319        H  0.90814508  0.31374085  0.59167181     0.06500
C320        C  0.84160221  0.55307008  0.33617924     0.03600
C321        C  0.84203784  0.53279325  0.38405864    -0.12600
C322        C  0.84056919  0.48826880  0.38611054     0.01100
C323        C  0.83837681  0.46396823  0.34039427    -0.11100
C324        C  0.84657530  0.49496946  0.62775053     0.03600
C325        C  0.84930790  0.54000623  0.62732054    -0.10500
H326        H  0.84527033  0.55236771  0.41938642     0.09200
H327        H  0.84024062  0.43104170  0.34192066     0.06700
H328        H  0.85133346  0.55737198  0.59091452     0.06500
O329        O  0.93759218  0.43779425  0.56215230    -0.72500
O330        O  0.89508202  0.49545199  0.45145110    -0.73500
O331        O  0.89768857  0.49834515  0.56063655    -0.62100
O332        O  0.93500175  0.43451902  0.45104841    -0.70500
O333        O  0.86146672  0.36988636  0.45401989    -0.70100
O334        O  0.82425180  0.43357253  0.56411232    -0.61300
O335        O  0.82145269  0.43080959  0.45270052    -0.73800
O336        O  0.86410574  0.37289992  0.56306670    -0.72600
Cu337      Cu  0.91893046  0.46873052  0.50622312     1.04600
Cu338      Cu  0.84015830  0.39961411  0.50852100     1.04300
C339        C  0.90699027  0.39699485  0.58108796     0.93700
C340        C  0.85216249  0.47147574  0.43350891     0.92800
C341        C  0.85586566  0.47521984  0.58096336     0.85000
C342        C  0.90362318  0.39270204  0.43436245     0.91300
C343        C  0.86319411  0.87803793  0.33519659     0.02700
C344        C  0.91016454  0.91894473  0.33303105     0.02700
C345        C  0.91631725  0.96588973  0.33265434     0.02700
C346        C  0.87549739  0.97199106  0.33390391     0.02700
C347        C  0.82851318  0.93118702  0.33396553     0.02700
C348        C  0.82232566  0.88420751  0.33551363     0.02700
C349        C  0.85783967  0.76853436  0.61630521    -0.01600
C350        C  0.85610062  0.74655407  0.66393020     0.07000
C351        C  0.86363306  0.76378800  0.37516882    -0.07500
C352        C  0.86885913  0.80973071  0.37782398     0.04500
C353        C  0.85673165  0.82854368  0.33487731    -0.15100
C354        C  0.86058375  0.81361899  0.61539751    -0.08100
C355        C  0.85433489  0.69933008  0.66697924     0.05400
C356        C  0.87826410  0.68268718  0.30268434    -0.09200
C357        C  0.87885658  0.63928811  0.30487807     0.00400
C358        C  0.84335262  0.60019989  0.33370879     0.00300
C359        C  0.81520764  0.61508449  0.69304141    -0.12800
C360        C  0.81520037  0.65880357  0.69019131     0.00700
C361        C  0.91770302  0.63674361  0.27945816     0.40000
C362        C  0.77413042  0.66091861  0.71012204     0.36700
C363        C  0.85565171  0.74504475  0.56797119     0.36400
C364        C  0.88603298  0.83603786  0.42550239     0.37200
N365        N  0.94888543  0.63475379  0.25916799    -0.43600
N366        N  0.74132977  0.66277045  0.72617149    -0.44100
N367        N  0.89956365  0.85584979  0.46454053    -0.41400
N368        N  0.85378100  0.72624163  0.52917701    -0.42900
H369        H  0.86221305  0.83061370  0.57882415     0.13300
H370        H  0.87308565  0.74952890  0.40825892     0.09800
H371        H  0.90596708  0.71289358  0.28125619     0.10800
H372        H  0.78472150  0.58382853  0.71015599     0.16700
C373        C  0.86452966  0.17178617  0.37171443    -0.01600
C374        C  0.90078582  0.16411803  0.35036462     0.07000
C375        C  0.93364944  0.20600267  0.63900879    -0.07500
C376        C  0.94115374  0.25294332  0.64050030     0.04500
C377        C  0.91315792  0.26426137  0.67375413    -0.14800
C378        C  0.86951254  0.21786360  0.37025678    -0.08100
C379        C  0.89546308  0.11519976  0.34755006     0.05400
C380        C  0.86908252  0.09266676  0.62430167    -0.09200
C381        C  0.86243584  0.04621826  0.61891208     0.00400
C382        C  0.88209857  0.02136609  0.33758162     0.00300
C383        C  0.88359947  0.04090394  0.38645727    -0.12800
C384        C  0.89113941  0.08779605  0.39185010     0.00700
C385        C  0.83995155  0.02020245  0.57230578     0.40000
C386        C  0.89618116  0.10752390  0.44307400     0.36700
C387        C  0.82073544  0.13248210  0.39278804     0.36400
C388        C  0.97862748  0.28900452  0.60845477     0.37200
N389        N  0.82195371  0.00085537  0.53412324    -0.43600
N390        N  0.90035067  0.12316011  0.48423893    -0.44100
N391        N  0.00857695  0.31790197  0.58271682    -0.41400
N392        N  0.78570434  0.10088397  0.40964978    -0.42900
H393        H  0.84130154  0.22337764  0.38627841     0.13300
H394        H  0.95470899  0.19726747  0.61296741     0.09800
H395        H  0.85617622  0.10713320  0.59445550     0.10800
H396        H  0.87986133  0.01975146  0.42046580     0.16700
C397        C  0.02406558  0.92236718  0.37934351    -0.01600
C398        C  0.03832420  0.90728995  0.33505106     0.07000
C399        C  0.02082711  0.92068257  0.61070884    -0.07500
C400        C  0.97970477  0.92546545  0.60917124     0.04500
C401        C  0.95346334  0.91306755  0.33318601    -0.14800
C402        C  0.98204154  0.92556435  0.37792191    -0.08100
C403        C  0.08385384  0.90626519  0.33336557     0.05400
C404        C  0.08203887  0.86992137  0.67840331    -0.09200
C405        C  0.12342756  0.86549561  0.67932280     0.00400
C406        C  0.16698702  0.90234524  0.65835168     0.00300
C407        C  0.16706293  0.94004194  0.30587372    -0.12800
C408        C  0.12469154  0.94258171  0.30785784     0.00700
C409        C  0.12010258  0.82242319  0.70096837     0.40000
C410        C  0.12375850  0.98266328  0.28359705     0.36700
C411        C  0.05229398  0.93537346  0.42620549     0.36400
C412        C  0.96467227  0.93518249  0.56048336     0.37200
N413        N  0.11751821  0.78797366  0.71840816    -0.43600
N414        N  0.12269904  0.01450824  0.26390468    -0.44100
N415        N  0.95346502  0.94398415  0.52144712    -0.41400
N416        N  0.07472465  0.94564313  0.46390558    -0.42900
H417        H  0.97151530  0.93807244  0.41168024     0.13300
H418        H  0.03939766  0.92242039  0.57518230     0.09800
H419        H  0.04840590  0.84108850  0.69373506     0.10800
H420        H  0.19877245  0.96853841  0.28709312     0.16700
C421        C  0.70798621  0.92298552  0.61408734    -0.01600
C422        C  0.69663968  0.94367199  0.65597627     0.07000
C423        C  0.71940539  0.94163603  0.37324825    -0.07500
C424        C  0.76023568  0.93639597  0.37674319     0.04500
C425        C  0.78551014  0.93762716  0.33189489    -0.14800
C426        C  0.75054688  0.92066951  0.61530174    -0.08100
C427        C  0.65303759  0.94864338  0.65635290     0.05400
C428        C  0.61468474  0.91426310  0.33960233    -0.09200
C429        C  0.57319079  0.91862785  0.34094719     0.00400
C430        C  0.57608948  0.96252401  0.32667516     0.00300
C431        C  0.61524247  0.99809189  0.66340350    -0.12800
C432        C  0.65695387  0.99453498  0.65965655     0.00700
C433        C  0.52784503  0.87724339  0.35567349     0.40000
C434        C  0.70333218  0.03841656  0.65788231     0.36700
C435        C  0.67757882  0.90551279  0.56883598     0.36400
C436        C  0.77493091  0.92876291  0.42658706     0.37200
N437        N  0.49147504  0.84399492  0.36727174    -0.43600
N438        N  0.74056544  0.07345254  0.65629940    -0.44100
N439        N  0.78620729  0.92188420  0.46655716    -0.41400
N440        N  0.65336609  0.89145113  0.53244506    -0.42900
H441        H  0.75952057  0.90524282  0.58283133     0.13300
H442        H  0.70032365  0.94102742  0.40799452     0.09800
H443        H  0.61237252  0.88054108  0.35075749     0.10800
H444        H  0.61824555  0.03337482  0.66556124     0.16700
C445        C  0.71072967  0.77448883  0.61791890    -0.01600
C446        C  0.68304708  0.76064363  0.66335715     0.07000
C447        C  0.70589388  0.77264501  0.37763609    -0.07500
C448        C  0.75216117  0.81322464  0.38008725     0.04500
C449        C  0.77276846  0.84127499  0.33553500    -0.14800
C450        C  0.75607655  0.81649545  0.61759961    -0.08100
C451        C  0.63476974  0.71656629  0.66515756     0.05400
C452        C  0.62841832  0.67282396  0.30916021    -0.09200
C453        C  0.58438919  0.62929294  0.30911802     0.00400
C454        C  0.54285688  0.62772786  0.32993641     0.00300
C455        C  0.54954370  0.67169103  0.64207153    -0.12800
C456        C  0.59418371  0.71458735  0.64121006     0.00700
C457        C  0.58324368  0.58632509  0.28985702     0.40000
C458        C  0.59734979  0.75634936  0.61636624     0.36700
C459        C  0.69370634  0.74562963  0.57155193     0.36400
C460        C  0.77694423  0.82508007  0.42901833     0.37200
N461        N  0.58243753  0.55184404  0.27473973    -0.43600
N462        N  0.59970390  0.78978517  0.59655532    -0.44100
N463        N  0.79527800  0.83351306  0.46913916    -0.41400
N464        N  0.68012059  0.72243043  0.53442385    -0.42900
H465        H  0.77712533  0.82726503  0.58248789     0.13300
H466        H  0.69027094  0.75087990  0.41174202     0.09800
H467        H  0.66043486  0.67394152  0.29354598     0.10800
H468        H  0.51843088  0.67032859  0.62351423     0.16700
C469        C  0.03098100  0.07356130  0.38317052    -0.01600
C470        C  0.05902211  0.09122357  0.33814582     0.07000
C471        C  0.02939357  0.08861244  0.61409252    -0.07500
C472        C  0.98326121  0.04783359  0.61099706     0.04500
C473        C  0.96584464  0.00896936  0.33334610    -0.14800
C474        C  0.98471326  0.03287032  0.38036782    -0.08100
C475        C  0.10724317  0.13570435  0.33840079     0.05400
C476        C  0.14670602  0.13705645  0.66279873    -0.09200
C477        C  0.19318649  0.17750126  0.66353311     0.00400
C478        C  0.19934145  0.21932900  0.33467165     0.00300
C479        C  0.15866791  0.22265253  0.34835903    -0.12800
C480        C  0.11273250  0.18138489  0.34980866     0.00700
C481        C  0.23440735  0.17045681  0.66524539     0.40000
C482        C  0.07161453  0.18691366  0.36165586     0.36700
C483        C  0.04920981  0.09604612  0.43272404     0.36400
C484        C  0.95654782  0.03853883  0.56343608     0.37200
N485        N  0.26744137  0.16478856  0.66654680    -0.43600
N486        N  0.03857591  0.19112111  0.37137334    -0.44100
N487        N  0.93588684  0.03164397  0.52483859    -0.41400
N488        N  0.06377971  0.11415269  0.47242506    -0.42900
H489        H  0.96324572  0.01940255  0.41502586     0.13300
H490        H  0.04388928  0.11248115  0.58129852     0.09800
H491        H  0.14221091  0.10115340  0.66370834     0.10800
H492        H  0.16279177  0.25770051  0.35719924     0.16700
C493        C  0.24715348  0.26758800  0.66318142     0.03600
C494        C  0.26831680  0.28986853  0.71026728    -0.12600
C495        C  0.31321436  0.33253044  0.71097752     0.01100
C496        C  0.32897657  0.35004154  0.99663598    -0.11100
C497        C  0.30553480  0.33255511  0.94927005     0.03600
C498        C  0.25897146  0.29220857  0.94782406    -0.10500
H499        H  0.24909218  0.27508005  0.74595582     0.09200
H500        H  0.36386309  0.38297917  0.99778947     0.06700
H501        H  0.24029047  0.27970385  0.91123440     0.06500
C502        C  0.49645617  0.58598991  0.66659833     0.03600
C503        C  0.47321941  0.56433410  0.71297529    -0.12600
C504        C  0.42772281  0.52236060  0.71215964     0.01100
C505        C  0.40516720  0.50239383  0.66497369    -0.11100
C506        C  0.42029710  0.52161307  0.95280421     0.03600
C507        C  0.46557919  0.56379657  0.95415520    -0.10500
H508        H  0.49086332  0.57951020  0.74952342     0.09200
H509        H  0.37119106  0.46845259  0.66443628     0.06700
H510        H  0.48450934  0.57931341  0.91849575     0.06500
O511        O  0.43117407  0.47442671  0.77887885    -0.72500
O512        O  0.36794030  0.37371806  0.88790932    -0.73500
O513        O  0.37143237  0.37348684  0.77698698    -0.62100
O514        O  0.42763444  0.47432611  0.88781399    -0.70500
O515        O  0.36228608  0.48212690  0.88594520    -0.70100
O516        O  0.30618786  0.38144222  0.77447169    -0.61300
O517        O  0.30257013  0.38133474  0.88324585    -0.73800
O518        O  0.36599741  0.48238998  0.77458144    -0.72600
Cu519      Cu  0.40177130  0.42364072  0.83300125     1.04600
Cu520      Cu  0.33204595  0.43225386  0.82941881     1.04300
C521        C  0.40791870  0.49298887  0.75845310     0.93700
C522        C  0.32587017  0.36285539  0.90373812     0.92800
C523        C  0.33052738  0.36268028  0.75734701     0.85000
C524        C  0.40311756  0.49261838  0.90560977     0.91300
C525        C  0.52673713  0.96233835  0.66411469     0.03600
C526        C  0.50454508  0.96242453  0.71070654    -0.12600
C527        C  0.46406325  0.96863461  0.71036228     0.01100
C528        C  0.44628827  0.97492104  0.66339619    -0.11100
C529        C  0.46652691  0.97831606  0.94794277     0.03600
C530        C  0.50676457  0.97182252  0.94744797    -0.10500
H531        H  0.51804963  0.95668974  0.74674123     0.09200
H532        H  0.41333099  0.97683566  0.66283025     0.06700
H533        H  0.51851424  0.96373432  0.91151468     0.06500
C534        C  0.21382320  0.90925901  0.00071204     0.03600
C535        C  0.23265233  0.89859431  0.70643117    -0.12600
C536        C  0.27585045  0.89746685  0.70751862     0.01100
C537        C  0.29969216  0.90595058  0.99652297    -0.11100
C538        C  0.27710419  0.90686337  0.95066473     0.03600
C539        C  0.23417938  0.90885596  0.95271005    -0.10500
H540        H  0.21647624  0.90090400  0.74220539     0.09200
H541        H  0.33408706  0.90686218  0.99502219     0.06700
H542        H  0.21699511  0.91049241  0.91736049     0.06500
O543        O  0.42450533  0.99574074  0.88347369    -0.72500
O544        O  0.32359645  0.95210567  0.77260254    -0.73500
O545        O  0.32353470  0.95660673  0.88197268    -0.62100
O546        O  0.42415410  0.99111067  0.77246587    -0.70500
O547        O  0.41480273  0.91752698  0.77683366    -0.70100
O548        O  0.31414489  0.88301989  0.88640638    -0.61300
O549        O  0.31402259  0.87833356  0.77483208    -0.73800
O550        O  0.41509140  0.92204610  0.88569756    -0.72600
Cu551      Cu  0.37431115  0.97645666  0.82751278     1.04600
Cu552      Cu  0.36396106  0.89755179  0.83111616     1.04300
C553        C  0.43485154  0.96531309  0.90273332     0.93700
C554        C  0.30454432  0.90912943  0.75489266     0.92800
C555        C  0.30451761  0.91503260  0.90279606     0.85000
C556        C  0.43416316  0.95930093  0.75640560     0.91300
C557        C  0.91628417  0.30915433  0.00335946     0.03600
C558        C  0.92070084  0.33660802  0.72076312    -0.12600
C559        C  0.92390878  0.38195418  0.72057413     0.01100
C560        C  0.92776865  0.40180697  0.00687069    -0.11100
C561        C  0.92422992  0.37965571  0.95912134     0.03600
C562        C  0.91907247  0.33344267  0.95745284    -0.10500
H563        H  0.91903685  0.31937002  0.75714067     0.09200
H564        H  0.92874877  0.43619716  0.00820177     0.06700
H565        H  0.91485201  0.31549542  0.92073009     0.06500
C566        C  0.85082644  0.56333072  0.67382736     0.03600
C567        C  0.85175722  0.54219199  0.72090236    -0.12600
C568        C  0.84935189  0.49716550  0.72137878     0.01100
C569        C  0.84499984  0.47303606  0.67480330    -0.11100
C570        C  0.84968461  0.49487961  0.96258658     0.03600
C571        C  0.85149247  0.53948454  0.96426408    -0.10500
H572        H  0.85594335  0.56140105  0.75674502     0.09200
H573        H  0.84550577  0.43936968  0.67502770     0.06700
H574        H  0.85551946  0.55885712  0.92877990     0.06500
O575        O  0.94421139  0.44132127  0.89662993    -0.72500
O576        O  0.90321169  0.50253165  0.78716205    -0.73500
O577        O  0.90331835  0.50154502  0.89663183    -0.62100
O578        O  0.94419346  0.44226664  0.78518671    -0.70500
O579        O  0.87078097  0.37728892  0.78568259    -0.70100
O580        O  0.83008390  0.43629065  0.89668299    -0.61300
O581        O  0.82998581  0.43735488  0.78550424    -0.73800
O582        O  0.87087446  0.37631833  0.89434033    -0.72600
Cu583      Cu  0.92638289  0.47419936  0.84142745     1.04600
Cu584      Cu  0.84785807  0.40468337  0.84052486     1.04300
C585        C  0.91334450  0.39961623  0.91356651     0.93700
C586        C  0.86069927  0.47882255  0.76798939     0.92800
C587        C  0.86087832  0.47741221  0.91535042     0.85000
C588        C  0.91325706  0.40090466  0.76704304     0.91300
C589        C  0.86496049  0.88531614  0.65863347     0.02700
C590        C  0.91088566  0.92699559  0.65511124     0.02700
C591        C  0.91533589  0.97316078  0.65316885     0.02700
C592        C  0.87352454  0.97784818  0.65436465     0.02700
C593        C  0.82714938  0.93565026  0.65707750     0.02700
C594        C  0.82306708  0.88947967  0.65953274     0.02700
C595        C  0.86490293  0.77172127  0.96438880    -0.01600
C596        C  0.85369736  0.74301494  0.00895000     0.07000
C597        C  0.85682263  0.77022157  0.70979646    -0.07500
C598        C  0.85893573  0.81493865  0.70884713     0.04500
C599        C  0.86097177  0.83700238  0.66132172    -0.15100
C600        C  0.86533296  0.81562570  0.96650433    -0.08100
C601        C  0.85235678  0.69597263  0.00891858     0.05400
C602        C  0.89321804  0.69535495  0.64769916    -0.09200
C603        C  0.89314545  0.65160886  0.65042260     0.00400
C604        C  0.85363439  0.61090691  0.67283548     0.00300
C605        C  0.81817310  0.61247912  0.98109442    -0.12800
C606        C  0.81842258  0.65633780  0.97926540     0.00700
C607        C  0.93451418  0.64960505  0.63126860     0.40000
C608        C  0.78281037  0.65945869  0.94769056     0.36700
C609        C  0.87783843  0.75789261  0.91664554     0.36400
C610        C  0.86012178  0.83786951  0.75716903     0.37200
N611        N  0.96765349  0.64787805  0.61609550    -0.43600
N612        N  0.75446084  0.66213881  0.92226053    -0.44100
N613        N  0.86139248  0.85596081  0.79624193    -0.41400
N614        N  0.88835757  0.74705053  0.87831948    -0.42900
H615        H  0.87275469  0.83695574  0.93192189     0.13300
H616        H  0.85606777  0.75378343  0.74649253     0.09800
H617        H  0.92385403  0.72665661  0.63084252     0.10800
H618        H  0.79189935  0.58216052  0.95822190     0.16700
C619        C  0.87201227  0.18128576  0.70487440    -0.01600
C620        C  0.89945122  0.17013071  0.67101416     0.07000
C621        C  0.93739114  0.20270341  0.99654925    -0.07500
C622        C  0.94638512  0.25026713  0.99510814     0.04500
C623        C  0.90799062  0.25947270  0.00198399    -0.14800
C624        C  0.87896720  0.22810502  0.70598222    -0.08100
C625        C  0.89256184  0.12099181  0.66758151     0.05400
C626        C  0.86057764  0.08320048  0.96543955    -0.09200
C627        C  0.85377883  0.03646270  0.96564597     0.00400
C628        C  0.87924827  0.02721687  0.65761014     0.00300
C629        C  0.90329199  0.05623664  0.70072318    -0.12800
C630        C  0.91011233  0.10273391  0.70592153     0.00700
C631        C  0.83206719  0.00631948  0.92111332     0.40000
C632        C  0.93584142  0.13134801  0.75041390     0.36700
C633        C  0.83570662  0.14487872  0.73764635     0.36400
C634        C  0.99535837  0.28917534  0.98814562     0.37200
N635        N  0.81419779  0.98170912  0.88567692    -0.43600
N636        N  0.95649529  0.15434177  0.78604134    -0.44100
N637        N  0.03462120  0.32043497  0.98279864    -0.41400
N638        N  0.80665788  0.11553680  0.76379526    -0.42900
H639        H  0.85687973  0.23613901  0.73122995     0.13300
H640        H  0.96698984  0.19561626  0.99160102     0.09800
H641        H  0.84921493  0.09563824  0.93229765     0.10800
H642        H  0.91638868  0.04221911  0.73078588     0.16700
C643        C  0.01418491  0.91201242  0.70371539    -0.01600
C644        C  0.03878999  0.91447423  0.65769969     0.07000
C645        C  0.01694310  0.92032260  0.96459282    -0.07500
C646        C  0.97399523  0.92181197  0.96287171     0.04500
C647        C  0.95482569  0.92224900  0.65497868    -0.14800
C648        C  0.97230898  0.91547655  0.70188699    -0.08100
C649        C  0.08346890  0.91109945  0.65771538     0.05400
C650        C  0.08461785  0.87683022  0.03099039    -0.09200
C651        C  0.12680709  0.87378638  0.02812687     0.00400
C652        C  0.16829530  0.91072899  0.00379021     0.00300
C653        C  0.16832625  0.94319945  0.63701600    -0.12800
C654        C  0.12716983  0.94802622  0.63684905     0.00700
C655        C  0.12633245  0.83189954  0.04935859     0.40000
C656        C  0.13103225  0.99169953  0.61624391     0.36700
C657        C  0.03209974  0.90784323  0.75340289     0.36400
C658        C  0.95482741  0.92363314  0.91317655     0.37200
N659        N  0.12598863  0.79839566  0.06651904    -0.43600
N660        N  0.13396738  0.02654064  0.59950687    -0.44100
N661        N  0.93983305  0.92435707  0.87282344    -0.41400
N662        N  0.04635504  0.90454679  0.79330052    -0.42900
H663        H  0.95388501  0.91425549  0.73731456     0.13300
H664        H  0.03494732  0.92119053  0.92890542     0.09800
H665        H  0.05243538  0.84760287  0.04829252     0.10800
H666        H  0.20190674  0.97180656  0.62131765     0.16700
C667        C  0.70431094  0.91888309  0.96126934    -0.01600
C668        C  0.69151429  0.94038765  0.00088896     0.07000
C669        C  0.72783760  0.96103178  0.69856536    -0.07500
C670        C  0.77047538  0.95912002  0.69952559     0.04500
C671        C  0.78238512  0.93910570  0.65749391    -0.14800
C672        C  0.74492206  0.91373193  0.96723159    -0.08100
C673        C  0.64950614  0.94737614  0.99613286     0.05400
C674        C  0.60713857  0.90700889  0.65600613    -0.09200
C675        C  0.56536421  0.91067571  0.65909861     0.00400
C676        C  0.56951643  0.95652812  0.66345428     0.00300
C677        C  0.61214353  0.99282402  0.96615240    -0.12800
C678        C  0.65190434  0.98569840  0.96729092     0.00700
C679        C  0.51868909  0.86717980  0.65722575     0.40000
C680        C  0.69516595  0.01858003  0.93967105     0.36700
C681        C  0.67707832  0.90306000  0.91380119     0.36400
C682        C  0.80125663  0.97790388  0.74411878     0.37200
N683        N  0.48124657  0.83236489  0.65553545    -0.43600
N684        N  0.72994010  0.04473628  0.91759069    -0.44100
N685        N  0.82646348  0.99364440  0.77951402    -0.41400
N686        N  0.65545901  0.89066004  0.87559308    -0.42900
H687        H  0.75501527  0.89763721  0.93636901     0.13300
H688        H  0.71890448  0.97647219  0.73108596     0.09800
H689        H  0.60403500  0.87170467  0.65370682     0.10800
H690        H  0.61427640  0.02286063  0.94472165     0.16700
C691        C  0.70875210  0.76987307  0.96336536    -0.01600
C692        C  0.67733772  0.75435964  0.00587207     0.07000
C693        C  0.70171834  0.78874593  0.70805355    -0.07500
C694        C  0.74718697  0.83070575  0.70782905     0.04500
C695        C  0.77466192  0.84497253  0.66214264    -0.14800
C696        C  0.75418840  0.81144949  0.96766142    -0.08100
C697        C  0.62898178  0.71072016  0.00326542     0.05400
C698        C  0.62967001  0.67576764  0.69070539    -0.09200
C699        C  0.58498538  0.63286160  0.69177632     0.00400
C700        C  0.54441256  0.63059586  0.66713850     0.00300
C701        C  0.54424276  0.66949803  0.97843348    -0.12800
C702        C  0.58979573  0.71126585  0.97898662     0.00700
C703        C  0.58218267  0.59123191  0.71660719     0.40000
C704        C  0.59523785  0.75463191  0.95581465     0.36700
C705        C  0.69509919  0.74373591  0.91511847     0.36400
C706        C  0.76489655  0.85783429  0.75514329     0.37200
N707        N  0.57997417  0.55787563  0.73649319    -0.43600
N708        N  0.59943783  0.78940765  0.93744470    -0.44100
N709        N  0.77840036  0.87884124  0.79362253    -0.41400
N710        N  0.68418841  0.72290503  0.87636653    -0.42900
H711        H  0.77814690  0.82363900  0.93471945     0.13300
H712        H  0.68061349  0.77784721  0.74314813     0.09800
H713        H  0.66089169  0.67729207  0.70912844     0.10800
H714        H  0.51407099  0.67010561  0.95995743     0.16700
C715        C  0.03861028  0.06791502  0.70164729    -0.01600
C716        C  0.05729613  0.09892631  0.65905487     0.07000
C717        C  0.01653317  0.08174707  0.95395932    -0.07500
C718        C  0.97176158  0.03908654  0.95556580     0.04500
C719        C  0.96443497  0.01679476  0.65370822    -0.14800
C720        C  0.99234556  0.02747418  0.69880236    -0.08100
C721        C  0.10581872  0.14250708  0.66065669     0.05400
C722        C  0.12924348  0.14443813  0.96352273    -0.09200
C723        C  0.17568456  0.18492540  0.96211515     0.00400
C724        C  0.19895116  0.22411058  0.66235055     0.00300
C725        C  0.15814267  0.22963066  0.66045733    -0.12800
C726        C  0.11166886  0.18920800  0.65958768     0.00700
C727        C  0.21190541  0.18237689  0.93125174     0.40000
C728        C  0.07050152  0.19638246  0.65887582     0.36700
C729        C  0.06576774  0.07746198  0.74897924     0.36400
C730        C  0.94383187  0.02242470  0.90863845     0.37200
N731        N  0.24084776  0.18037990  0.90632474    -0.43600
N732        N  0.03742786  0.20199404  0.65843637    -0.44100
N733        N  0.92248722  0.00971858  0.87028247    -0.41400
N734        N  0.08752637  0.08502350  0.78690845    -0.42900
H735        H  0.97759619  0.00432418  0.73209711     0.13300
H736        H  0.02877904  0.10166936  0.91823170     0.09800
H737        H  0.12126144  0.11258671  0.94118511     0.10800
H738        H  0.16269013  0.26558421  0.65981328     0.16700
loop_ 
_geom_bond_atom_site_label_1 
_geom_bond_atom_site_label_2 
_geom_bond_distance 
_geom_bond_site_symmetry_2 
_ccdc_geom_bond_type 
C1            C2   1.408   1_556  A
C1          C498   1.405       .  A
C1          C232   1.483       .  S
C2            C3   1.402       .  A
C2            H7   1.084       .  S
C3          C496   1.400   1_554  A
C3           C31   1.467       .  S
C4            C5   1.401       .  A
C4          C249   1.401       .  A
C4            H8   1.085       .  S
C5            C6   1.402       .  A
C5           C30   1.467       .  S
C6          C247   1.406       .  A
C6            H9   1.084       .  S
C10          C11   1.405       .  A
C10         C507   1.404   1_554  A
C10         C208   1.479       .  S
C11          C12   1.400       .  A
C11          H16   1.084       .  S
C12          C13   1.400   1_554  A
C12          C29   1.465       .  S
C13         C506   1.401       .  A
C13          H17   1.085       .  S
C14          C15   1.402       .  A
C14         C259   1.399       .  A
C14          C32   1.466       .  S
C15         C256   1.407       .  A
C15          H18   1.084       .  S
O19         Cu27   1.999       .  S
O19          C29   1.276       .  A
O20         Cu27   2.020       .  S
O20          C30   1.278       .  A
O21         Cu27   2.017       .  S
O21          C31   1.278       .  A
O22         Cu27   2.002       .  S
O22          C32   1.276       .  A
O23         Cu28   2.015       .  S
O23          C32   1.278       .  A
O24         Cu28   2.000       .  S
O24          C31   1.276       .  A
O25         Cu28   2.001       .  S
O25          C30   1.276       .  A
O26         Cu28   2.017       .  S
O26          C29   1.278       .  A
Cu27        Cu28   2.378       .  S
C33          C34   1.403   1_556  A
C33         C530   1.403       .  A
C33         C184   1.476       .  S
C34          C35   1.398       .  A
C34          H39   1.084       .  S
C35          C36   1.401   1_554  A
C35          C64   1.462       .  S
C36         C529   1.401       .  A
C36          H40   1.085       .  S
C37          C38   1.401       .  A
C37         C282   1.402       .  A
C37          C61   1.467       .  S
C38         C279   1.404       .  A
C38          H41   1.084       .  S
C42          C47   1.406       .  A
C42         C289   1.405       .  A
C42         C160   1.476       .  S
C43          C44   1.398       .  A
C43         C534   1.404       .  A
C43          H48   1.084       .  S
C44         C537   1.398   1_554  A
C44          C62   1.462       .  S
C45          C46   1.396       .  A
C45         C290   1.396       .  A
C45          H49   1.085       .  S
C46          C47   1.400       .  A
C46          C63   1.460       .  S
C47          H50   1.084       .  S
O51         Cu59   2.025   1_545  S
O51          C61   1.279   1_545  A
O52         Cu59   2.002       .  S
O52          C62   1.277       .  A
O53         Cu59   1.998       .  S
O53          C63   1.276       .  A
O54         Cu59   2.018   1_545  S
O54          C64   1.278   1_545  A
O55         Cu60   1.988       .  S
O55          C64   1.275       .  A
O56         Cu60   2.004       .  S
O56          C63   1.276       .  A
O57         Cu60   2.006       .  S
O57          C62   1.276       .  A
O58         Cu60   1.994       .  S
O58          C61   1.275       .  A
Cu59        Cu60   2.379       .  S
C65          C70   1.410       .  A
C65         C312   1.406       .  A
C65         C131   1.484       .  S
C66          C67   1.399       .  A
C66         C557   1.402       .  A
C66          H71   1.084       .  S
C67         C560   1.402       .  A
C67          C96   1.465       .  S
C68          C69   1.400       .  A
C68         C313   1.399       .  A
C68          H72   1.085       .  S
C69          C70   1.404       .  A
C69          C93   1.470       .  S
C70          H73   1.084       .  S
C74          C75   1.410       .  A
C74         C571   1.407   1_554  A
C74         C112   1.487       .  S
C75          C76   1.403       .  A
C75          H80   1.083       .  S
C76          C77   1.398       .  A
C76          C94   1.467       .  S
C77         C570   1.398   1_554  A
C77          H81   1.085       .  S
C78          C79   1.398       .  A
C78         C323   1.397       .  A
C78          C95   1.461       .  S
C79         C320   1.405       .  A
C79          H82   1.084       .  S
O83         Cu91   2.020       .  S
O83          C93   1.279       .  A
O84         Cu91   2.001       .  S
O84          C94   1.276       .  A
O85         Cu91   1.993       .  S
O85          C95   1.276       .  A
O86         Cu91   2.015       .  S
O86          C96   1.278       .  A
O87         Cu92   1.997       .  S
O87          C96   1.276       .  A
O88         Cu92   2.011       .  S
O88          C95   1.277       .  A
O89         Cu92   2.020       .  S
O89          C94   1.279       .  A
O90         Cu92   2.008       .  S
O90          C93   1.277       .  A
Cu91        Cu92   2.378       .  S
C97          C98   1.412       .  A
C97         C102   1.414       .  A
C97         C107   1.489       .  S
C98          C99   1.413       .  A
C98         C155   1.489       .  S
C99         C100   1.416       .  A
C99         C227   1.489   1_565  S
C100        C101   1.419       .  A
C100        C136   1.495   1_565  S
C101        C102   1.417       .  A
C101        C179   1.489       .  S
C102        C203   1.490       .  S
C103        C104   1.409       .  A
C103        C108   1.400       .  A
C103        C117   1.443       .  S
C104        C351   1.398       .  A
C104        C109   1.477       .  S
C105        C106   1.398       .  A
C105        C596   1.402       .  A
C105        H124   1.085       .  S
C106        C107   1.410       .  A
C106        C118   1.440       .  S
C107        C600   1.403   1_554  A
C108        C353   1.405       .  A
C108        H123   1.084       .  S
C109        C114   1.409       .  A
C109        C356   1.400       .  A
C110        C111   1.400       .  A
C110        C601   1.403       .  A
C110        H125   1.085       .  S
C111        C112   1.414       .  A
C111        C115   1.444       .  S
C112        C605   1.406   1_554  A
C113        C114   1.399       .  A
C113        C358   1.404       .  A
C113        H126   1.085       .  S
C114        C116   1.444       .  S
C115        N119   1.157       .  T
C116        N120   1.157       .  T
C117        N122   1.157       .  T
C118        N121   1.156       .  T
C127        C128   1.409       .  A
C127        C132   1.400       .  A
C127        C141   1.444       .  S
C128        C621   1.403   1_554  A
C128        C133   1.480       .  S
C129        C130   1.401       .  A
C129        C374   1.405       .  A
C129        H148   1.084       .  S
C130        C131   1.411       .  A
C130        C142   1.444       .  S
C131        C378   1.405       .  A
C132        C623   1.403       .  A
C132        H147   1.085       .  S
C133        C138   1.409       .  A
C133        C626   1.400   1_554  A
C134        C135   1.398       .  A
C134        C379   1.403       .  A
C134        H149   1.085       .  S
C135        C382   1.408       .  A
C135        C139   1.440       .  S
C136        C137   1.405       .  A
C136        C627   1.412   1_554  A
C137        C138   1.399       .  A
C137        H150   1.084       .  S
C138        C140   1.443       .  S
C139        N143   1.156       .  T
C140        N144   1.157       .  T
C141        N146   1.157       .  T
C142        N145   1.157   1_655  T
C151        C152   1.414       .  A
C151        C156   1.402   1_455  A
C151        C165   1.444       .  S
C152        C645   1.403   1_554  A
C152        C157   1.489       .  S
C153        C154   1.395   1_455  A
C153        C398   1.398       .  A
C153        H172   1.085       .  S
C154        C401   1.411       .  A
C154        C166   1.439       .  S
C155        C156   1.403       .  A
C155        C646   1.410   1_554  A
C156        H171   1.085       .  S
C157        C162   1.414   1_554  A
C157        C650   1.404       .  A
C158        C159   1.398       .  A
C158        C403   1.399       .  A
C158        H173   1.085       .  S
C159        C160   1.413       .  A
C159        C163   1.444       .  S
C160        C407   1.403       .  A
C161        C162   1.400       .  A
C161        C652   1.401   1_556  A
C161        H174   1.085       .  S
C162        C164   1.443       .  S
C163        N167   1.157       .  T
C164        N168   1.157   1_565  T
C165        N170   1.157       .  T
C166        N169   1.156       .  T
C175        C176   1.412       .  A
C175        C180   1.402       .  A
C175        C189   1.444       .  S
C176        C423   1.402       .  A
C176        C181   1.485       .  S
C177        C178   1.396       .  A
C177        C668   1.399       .  A
C177        H196   1.085       .  S
C178        C179   1.411       .  A
C178        C190   1.439       .  S
C179        C672   1.405   1_554  A
C180        C425   1.403       .  A
C180        H195   1.084       .  S
C181        C186   1.411       .  A
C181        C428   1.403       .  A
C182        C183   1.396       .  A
C182        C673   1.399   1_554  A
C182        H197   1.085       .  S
C183        C184   1.413   1_554  A
C183        C187   1.445       .  S
C184        C677   1.403       .  A
C185        C186   1.401   1_545  A
C185        C430   1.403   1_545  A
C185        H198   1.085       .  S
C186        C188   1.444   1_565  S
C187        N191   1.157       .  T
C188        N192   1.157       .  T
C189        N194   1.157       .  T
C190        N193   1.156       .  T
C199        C200   1.408       .  A
C199        C204   1.399       .  A
C199        C213   1.443       .  S
C200        C447   1.399       .  A
C200        C205   1.477       .  S
C201        C202   1.398       .  A
C201        C692   1.400       .  A
C201        H220   1.085       .  S
C202        C203   1.413       .  A
C202        C214   1.442       .  S
C203        C696   1.404   1_554  A
C204        C449   1.404       .  A
C204        H219   1.084       .  S
C205        C210   1.409       .  A
C205        C452   1.401       .  A
C206        C207   1.399       .  A
C206        C697   1.400       .  A
C206        H221   1.085       .  S
C207        C208   1.413       .  A
C207        C211   1.444       .  S
C208        C701   1.403   1_554  A
C209        C210   1.400       .  A
C209        C454   1.404       .  A
C209        H222   1.085       .  S
C210        C212   1.444       .  S
C211        N215   1.157       .  T
C212        N216   1.157       .  T
C213        N218   1.157       .  T
C214        N217   1.157       .  T
C223        C224   1.411   1_554  A
C223        C228   1.398   1_455  A
C223        C237   1.444       .  S
C224        C717   1.401       .  A
C224        C229   1.481       .  S
C225        C226   1.399   1_455  A
C225        C470   1.402       .  A
C225        H244   1.085       .  S
C226        C473   1.412       .  A
C226        C238   1.442       .  S
C227        C228   1.402       .  A
C227        C718   1.413   1_554  A
C228        H243   1.085       .  S
C229        C234   1.409   1_556  A
C229        C722   1.401       .  A
C230        C231   1.401       .  A
C230        C475   1.404       .  A
C230        H245   1.083       .  S
C231        C478   1.409       .  A
C231        C235   1.444       .  S
C232        C233   1.405   1_556  A
C232        C723   1.414       .  A
C233        C234   1.399       .  A
C233        H246   1.085       .  S
C234        C236   1.443       .  S
C235        N239   1.157       .  T
C236        N240   1.157       .  T
C237        N242   1.157       .  T
C238        N241   1.157   1_545  T
C247        C248   1.404       .  A
C247        C478   1.476       .  S
C248        C249   1.400       .  A
C248        H253   1.084       .  S
C249        C277   1.466       .  S
C250        C495   1.399       .  A
C250        C251   1.399       .  A
C250        H254   1.085       .  S
C251        C252   1.400       .  A
C251        C276   1.463       .  S
C252        C493   1.403       .  A
C252        H255   1.084       .  S
C256        C257   1.404       .  A
C256        C454   1.478       .  S
C257        C258   1.400       .  A
C257        H262   1.084       .  S
C258        C259   1.399       .  A
C258        C275   1.463       .  S
C259        H263   1.085       .  S
C260        C505   1.399       .  A
C260        C261   1.402       .  A
C260        C278   1.467       .  S
C261        C502   1.407       .  A
C261        H264   1.084       .  S
O265       Cu273   1.995       .  S
O265        C275   1.276       .  A
O266       Cu273   2.013       .  S
O266        C276   1.277       .  A
O267       Cu273   2.017       .  S
O267        C277   1.278       .  A
O268       Cu273   2.002       .  S
O268        C278   1.276       .  A
O269       Cu274   2.017       .  S
O269        C278   1.278       .  A
O270       Cu274   2.000       .  S
O270        C277   1.276       .  A
O271       Cu274   1.996       .  S
O271        C276   1.276       .  A
O272       Cu274   2.012       .  S
O272        C275   1.277       .  A
Cu273      Cu274   2.379       .  S
C279        C280   1.407       .  A
C279        C430   1.481       .  S
C280        C281   1.404       .  A
C280        H285   1.084       .  S
C281        C282   1.402       .  A
C281        C310   1.472       .  S
C282        H286   1.085       .  S
C283        C528   1.401       .  A
C283        C284   1.396       .  A
C283        C307   1.459       .  S
C284        C525   1.399       .  A
C284        H287   1.085       .  S
C288        C535   1.404       .  A
C288        C293   1.406       .  A
C288        C406   1.477       .  S
C289        C290   1.397       .  A
C289        H294   1.084       .  S
C290        C308   1.457       .  S
C291        C536   1.401       .  A
C291        C292   1.401       .  A
C291        H295   1.085       .  S
C292        C293   1.401       .  A
C292        C309   1.467       .  S
C293        H296   1.084       .  S
O297       Cu305   2.010       .  S
O297        C307   1.277       .  A
O298       Cu305   1.992       .  S
O298        C308   1.275       .  A
O299       Cu305   2.003       .  S
O299        C309   1.277       .  A
O300       Cu305   2.023       .  S
O300        C310   1.279       .  A
O301       Cu306   2.006       .  S
O301        C310   1.277       .  A
O302       Cu306   2.017       .  S
O302        C309   1.278       .  A
O303       Cu306   2.006       .  S
O303        C308   1.276       .  A
O304       Cu306   1.987       .  S
O304        C307   1.275       .  A
Cu305      Cu306   2.379       .  S
C311        C558   1.407       .  A
C311        C316   1.406       .  A
C311        C377   1.484       .  S
C312        C313   1.401       .  A
C312        H317   1.084       .  S
C313        C342   1.467       .  S
C314        C559   1.399       .  A
C314        C315   1.398       .  A
C314        H318   1.085       .  S
C315        C316   1.398       .  A
C315        C339   1.462       .  S
C316        H319   1.084       .  S
C320        C321   1.408       .  A
C320        C358   1.482       .  S
C321        C322   1.402       .  A
C321        H326   1.084       .  S
C322        C323   1.399       .  A
C322        C340   1.464       .  S
C323        H327   1.085       .  S
C324        C569   1.400       .  A
C324        C325   1.399       .  A
C324        C341   1.465       .  S
C325        C566   1.405       .  A
C325        H328   1.084       .  S
O329       Cu337   2.011       .  S
O329        C339   1.277       .  A
O330       Cu337   1.998       .  S
O330        C340   1.276       .  A
O331       Cu337   1.998       .  S
O331        C341   1.276       .  A
O332       Cu337   2.017       .  S
O332        C342   1.278       .  A
O333       Cu338   2.003       .  S
O333        C342   1.276       .  A
O334       Cu338   2.016       .  S
O334        C341   1.278       .  A
O335       Cu338   2.015       .  S
O335        C340   1.278       .  A
O336       Cu338   1.996       .  S
O336        C339   1.276       .  A
Cu337      Cu338   2.379       .  S
C343        C344   1.415       .  A
C343        C348   1.415       .  A
C343        C353   1.490       .  S
C344        C345   1.414       .  A
C344        C401   1.486       .  S
C345        C346   1.412       .  A
C345        C473   1.490   1_565  S
C346        C347   1.413       .  A
C346        C382   1.488   1_565  S
C347        C348   1.415       .  A
C347        C425   1.489       .  S
C348        C449   1.489       .  S
C349        C350   1.413       .  A
C349        C354   1.401       .  A
C349        C363   1.444       .  S
C350        C597   1.403       .  A
C350        C355   1.485       .  S
C351        C352   1.395       .  A
C351        H370   1.085       .  S
C352        C353   1.412       .  A
C352        C364   1.439       .  S
C354        C599   1.402       .  A
C354        H369   1.085       .  S
C355        C602   1.404       .  A
C355        C360   1.412       .  A
C356        C357   1.399       .  A
C356        H371   1.085       .  S
C357        C358   1.415       .  A
C357        C361   1.445       .  S
C359        C604   1.402       .  A
C359        C360   1.401       .  A
C359        H372   1.085       .  S
C360        C362   1.444       .  S
C361        N365   1.157       .  T
C362        N366   1.157       .  T
C363        N368   1.157       .  T
C364        N367   1.156       .  T
C373        C374   1.412       .  A
C373        C378   1.402       .  A
C373        C387   1.444       .  S
C374        C379   1.488       .  S
C375        C620   1.399       .  A
C375        C376   1.397       .  A
C375        H394   1.085       .  S
C376        C377   1.415       .  A
C376        C388   1.444       .  S
C377        C624   1.407       .  A
C378        H393   1.085       .  S
C379        C384   1.414       .  A
C380        C625   1.398       .  A
C380        C381   1.398       .  A
C380        H395   1.085       .  S
C381        C628   1.413       .  A
C381        C385   1.437       .  S
C382        C383   1.403       .  A
C383        C384   1.401       .  A
C383        H396   1.085       .  S
C384        C386   1.444       .  S
C385        N389   1.155       .  T
C386        N390   1.157       .  T
C387        N392   1.157       .  T
C388        N391   1.157   1_655  T
C397        C398   1.407       .  A
C397        C402   1.397   1_455  A
C397        C411   1.444       .  S
C398        C403   1.472       .  S
C399        C644   1.404       .  A
C399        C400   1.397   1_455  A
C399        H418   1.085       .  S
C400        C647   1.407       .  A
C400        C412   1.441       .  S
C401        C402   1.404       .  A
C402        H417   1.084       .  S
C403        C408   1.408       .  A
C404        C649   1.404       .  A
C404        C405   1.399       .  A
C404        H419   1.085       .  S
C405        C406   1.410       .  A
C405        C409   1.444       .  S
C406        C653   1.402       .  A
C407        C408   1.397       .  A
C407        H420   1.085       .  S
C408        C410   1.444       .  S
C409        N413   1.157       .  T
C410        N414   1.157   1_565  T
C411        N416   1.157       .  T
C412        N415   1.156       .  T
C421        C422   1.410       .  A
C421        C426   1.399       .  A
C421        C435   1.444       .  S
C422        C669   1.401       .  A
C422        C427   1.479       .  S
C423        C424   1.399       .  A
C423        H442   1.085       .  S
C424        C425   1.408       .  A
C424        C436   1.439       .  S
C426        C671   1.405       .  A
C426        H441   1.084       .  S
C427        C674   1.403       .  A
C427        C432   1.412       .  A
C428        C429   1.401       .  A
C428        H443   1.084       .  S
C429        C430   1.411       .  A
C429        C433   1.444       .  S
C431        C676   1.399       .  A
C431        C432   1.397       .  A
C431        H444   1.085   1_565  S
C432        C434   1.445   1_565  S
C433        N437   1.157       .  T
C434        N438   1.157       .  T
C435        N440   1.157       .  T
C436        N439   1.156       .  T
C445        C446   1.410       .  A
C445        C450   1.399       .  A
C445        C459   1.444       .  S
C446        C693   1.401       .  A
C446        C451   1.481       .  S
C447        C448   1.397       .  A
C447        H466   1.085       .  S
C448        C449   1.413       .  A
C448        C460   1.441       .  S
C450        C695   1.403       .  A
C450        H465   1.084       .  S
C451        C698   1.402       .  A
C451        C456   1.409       .  A
C452        C453   1.399       .  A
C452        H467   1.085       .  S
C453        C454   1.411       .  A
C453        C457   1.444       .  S
C455        C700   1.404       .  A
C455        C456   1.400       .  A
C455        H468   1.085       .  S
C456        C458   1.443       .  S
C457        N461   1.157       .  T
C458        N462   1.157       .  T
C459        N464   1.157       .  T
C460        N463   1.157       .  T
C469        C470   1.412       .  A
C469        C474   1.399   1_455  A
C469        C483   1.443       .  S
C470        C475   1.485       .  S
C471        C716   1.402       .  A
C471        C472   1.398   1_455  A
C471        H490   1.084       .  S
C472        C719   1.411       .  A
C472        C484   1.443       .  S
C473        C474   1.403       .  A
C474        H489   1.085       .  S
C475        C480   1.412       .  A
C476        C721   1.403       .  A
C476        C477   1.399       .  A
C476        H491   1.084       .  S
C477        C724   1.408       .  A
C477        C481   1.443       .  S
C478        C479   1.402       .  A
C479        C480   1.400       .  A
C479        H492   1.085       .  S
C480        C482   1.444       .  S
C481        N485   1.157       .  T
C482        N486   1.157       .  T
C483        N488   1.157       .  T
C484        N487   1.157       .  T
C493        C494   1.403       .  A
C493        C724   1.471       .  S
C494        C495   1.400       .  A
C494        H499   1.084       .  S
C495        C523   1.463       .  S
C496        C497   1.400       .  A
C496        H500   1.085       .  S
C497        C498   1.399       .  A
C497        C522   1.464       .  S
C498        H501   1.084       .  S
C502        C503   1.406       .  A
C502        C700   1.482       .  S
C503        C504   1.401       .  A
C503        H508   1.084       .  S
C504        C505   1.400       .  A
C504        C521   1.465       .  S
C505        H509   1.085       .  S
C506        C507   1.400       .  A
C506        C524   1.464       .  S
C507        H510   1.084       .  S
O511       Cu519   1.999       .  S
O511        C521   1.276       .  A
O512       Cu519   2.012       .  S
O512        C522   1.278       .  A
O513       Cu519   2.012       .  S
O513        C523   1.277       .  A
O514       Cu519   1.993       .  S
O514        C524   1.276       .  A
O515       Cu520   2.017       .  S
O515        C524   1.278       .  A
O516       Cu520   1.998       .  S
O516        C523   1.276       .  A
O517       Cu520   1.996       .  S
O517        C522   1.276       .  A
O518       Cu520   2.015       .  S
O518        C521   1.278       .  A
Cu519      Cu520   2.379       .  S
C525        C526   1.404       .  A
C525        C676   1.469       .  S
C526        C527   1.403       .  A
C526        H531   1.084       .  S
C527        C528   1.402       .  A
C527        C556   1.468       .  S
C528        H532   1.085       .  S
C529        C530   1.401       .  A
C529        C553   1.465       .  S
C530        H533   1.084       .  S
C534        C539   1.410   1_554  A
C534        C652   1.481       .  S
C535        C536   1.399       .  A
C535        H540   1.084       .  S
C536        C554   1.464       .  S
C537        C538   1.399       .  A
C537        H541   1.085       .  S
C538        C539   1.405       .  A
C538        C555   1.469       .  S
C539        H542   1.084       .  S
O543       Cu551   2.014       .  S
O543        C553   1.277       .  A
O544       Cu551   1.996       .  S
O544        C554   1.276       .  A
O545       Cu551   2.005       .  S
O545        C555   1.276       .  A
O546       Cu551   2.017       .  S
O546        C556   1.278       .  A
O547       Cu552   2.003       .  S
O547        C556   1.276       .  A
O548       Cu552   2.021       .  S
O548        C555   1.279       .  A
O549       Cu552   2.015       .  S
O549        C554   1.278       .  A
O550       Cu552   1.998       .  S
O550        C553   1.276       .  A
Cu551      Cu552   2.378       .  S
C557        C562   1.404   1_554  A
C557        C623   1.475       .  S
C558        C559   1.402       .  A
C558        H563   1.084       .  S
C559        C588   1.464       .  S
C560        C561   1.402   1_554  A
C560        H564   1.085       .  S
C561        C562   1.403       .  A
C561        C585   1.468       .  S
C562        H565   1.084       .  S
C566        C567   1.407       .  A
C566        C604   1.479       .  S
C567        C568   1.403       .  A
C567        H572   1.084       .  S
C568        C569   1.401       .  A
C568        C586   1.469       .  S
C569        H573   1.085       .  S
C570        C571   1.399       .  A
C570        C587   1.463       .  S
C571        H574   1.084       .  S
O575       Cu583   2.023       .  S
O575        C585   1.279       .  A
O576       Cu583   2.008       .  S
O576        C586   1.277       .  A
O577       Cu583   2.001       .  S
O577        C587   1.276       .  A
O578       Cu583   2.018       .  S
O578        C588   1.278       .  A
O579       Cu584   1.992       .  S
O579        C588   1.275       .  A
O580       Cu584   2.009       .  S
O580        C587   1.277       .  A
O581       Cu584   2.016       .  S
O581        C586   1.278       .  A
O582       Cu584   1.998       .  S
O582        C585   1.276       .  A
Cu583      Cu584   2.378       .  S
C589        C590   1.408       .  A
C589        C594   1.410       .  A
C589        C599   1.488       .  S
C590        C591   1.412       .  A
C590        C647   1.486       .  S
C591        C592   1.417       .  A
C591        C719   1.489   1_565  S
C592        C593   1.422       .  A
C592        C628   1.498   1_565  S
C593        C594   1.418       .  A
C593        C671   1.489       .  S
C594        C695   1.490       .  S
C595        C596   1.411   1_556  A
C595        C600   1.398       .  A
C595        C609   1.444       .  S
C596        C601   1.484       .  S
C597        C598   1.398       .  A
C597        H616   1.085       .  S
C598        C599   1.410       .  A
C598        C610   1.442       .  S
C600        H615   1.083       .  S
C601        C606   1.410   1_554  A
C602        C603   1.400       .  A
C602        H617   1.085       .  S
C603        C604   1.411       .  A
C603        C607   1.444       .  S
C605        C606   1.400       .  A
C605        H618   1.085       .  S
C606        C608   1.445       .  S
C607        N611   1.157       .  T
C608        N612   1.157       .  T
C609        N614   1.157       .  T
C610        N613   1.157       .  T
C619        C620   1.408       .  A
C619        C624   1.400       .  A
C619        C633   1.444       .  S
C620        C625   1.476       .  S
C621        C622   1.401       .  A
C621        H640   1.085       .  S
C622        C623   1.409   1_556  A
C622        C634   1.444       .  S
C624        H639   1.084       .  S
C625        C630   1.406       .  A
C626        C627   1.399       .  A
C626        H641   1.085       .  S
C627        C631   1.438       .  S
C628        C629   1.407       .  A
C629        C630   1.397       .  A
C629        H642   1.084       .  S
C630        C632   1.443       .  S
C631        N635   1.155   1_545  T
C632        N636   1.157       .  T
C633        N638   1.157       .  T
C634        N637   1.157   1_655  T
C643        C644   1.413       .  A
C643        C648   1.397   1_455  A
C643        C657   1.444       .  S
C644        C649   1.484       .  S
C645        C646   1.397   1_455  A
C645        H664   1.085       .  S
C646        C658   1.441       .  S
C647        C648   1.401       .  A
C648        H663   1.084       .  S
C649        C654   1.413       .  A
C650        C651   1.401       .  A
C650        H665   1.085       .  S
C651        C652   1.412       .  A
C651        C655   1.444       .  S
C653        C654   1.398       .  A
C653        H666   1.085       .  S
C654        C656   1.445       .  S
C655        N659   1.157       .  T
C656        N660   1.157   1_565  T
C657        N662   1.157       .  T
C658        N661   1.157       .  T
C667        C668   1.406   1_556  A
C667        C672   1.396       .  A
C667        C681   1.443       .  S
C668        C673   1.472   1_554  S
C669        C670   1.394       .  A
C669        H688   1.085       .  S
C670        C671   1.409       .  A
C670        C682   1.438       .  S
C672        H687   1.084       .  S
C673        C678   1.408       .  A
C674        C675   1.399       .  A
C674        H689   1.084       .  S
C675        C676   1.409       .  A
C675        C679   1.444       .  S
C677        C678   1.399       .  A
C677        H690   1.085   1_565  S
C678        C680   1.444   1_565  S
C679        N683   1.157       .  T
C680        N684   1.157       .  T
C681        N686   1.157       .  T
C682        N685   1.155       .  T
C691        C692   1.408   1_556  A
C691        C696   1.398       .  A
C691        C705   1.444       .  S
C692        C697   1.477       .  S
C693        C694   1.400       .  A
C693        H712   1.085       .  S
C694        C695   1.412       .  A
C694        C706   1.442       .  S
C696        H711   1.085       .  S
C697        C702   1.409   1_554  A
C698        C699   1.401       .  A
C698        H713   1.084       .  S
C699        C700   1.413       .  A
C699        C703   1.444       .  S
C701        C702   1.399       .  A
C701        H714   1.085       .  S
C702        C704   1.443       .  S
C703        N707   1.157       .  T
C704        N708   1.157       .  T
C705        N710   1.157       .  T
C706        N709   1.157       .  T
C715        C716   1.408       .  A
C715        C720   1.396   1_455  A
C715        C729   1.444       .  S
C716        C721   1.478       .  S
C717        C718   1.399   1_455  A
C717        H736   1.085       .  S
C718        C730   1.442       .  S
C719        C720   1.404       .  A
C720        H735   1.084       .  S
C721        C726   1.410       .  A
C722        C723   1.399       .  A
C722        H737   1.084       .  S
C723        C727   1.444       .  S
C724        C725   1.401       .  A
C725        C726   1.398       .  A
C725        H738   1.085       .  S
C726        C728   1.444       .  S
C727        N731   1.157       .  T
C728        N732   1.157       .  T
C729        N734   1.157       .  T
C730        N733   1.157       .  T
