geometry optimzed in LAMMPS
_audit_creation_date              2020-11-30 
_audit_creation_method            'lammps2cif' 
_symmetry_space_group_name_H-M    'P1' 
_symmetry_Int_Tables_number       1 
_symmetry_cell_setting            triclinic 
loop_ 
_symmetry_equiv_pos_as_xyz 
  x,y,z 
_cell_length_a                    20.846113503426043 
_cell_length_b                    20.808151413291625 
_cell_length_c                    53.61290904544538 
_cell_angle_alpha                 90.13758375716705 
_cell_angle_beta                  89.90577917485756 
_cell_angle_gamma                 91.98034682000163 
loop_ 
_atom_site_label 
_atom_site_type_symbol 
_atom_site_fract_x 
_atom_site_fract_y 
_atom_site_fract_z 
_atom_site_charge 
O1          O  0.25996588  0.27944818  0.12629639    -0.74330
O2          O  0.05899223  0.27970856  0.07598924    -0.74360
O3          O  0.06864807  0.27920778  0.12624337    -0.74420
O4          O  0.26955868  0.27984493  0.07603144    -0.74470
O5          O  0.27322992  0.05386987  0.07624070    -0.74400
O6          O  0.07252345  0.05251509  0.12648811    -0.74380
O7          O  0.06262631  0.05373650  0.07617236    -0.74350
O8          O  0.26340442  0.05276625  0.12655314    -0.74420
Ni9        Ni  0.33082017  0.27568130  0.10206710     1.25410
Ni10       Ni  0.00143138  0.05713802  0.10234036     1.25360
C11         C  0.23248904  0.99931502  0.13145753     0.87850
C12         C  0.07171009  0.00011622  0.06524589     0.87780
C13         C  0.09976946  0.33239088  0.13140981     0.87810
C14         C  0.26030037  0.33359848  0.06533113     0.87980
O15         O  0.10252150  0.27951205  0.02879012    -0.74330
O16         O  0.22594416  0.27849775  0.97697832    -0.74360
O17         O  0.22543981  0.27963547  0.02892975    -0.74420
O18         O  0.10302474  0.27841254  0.97681911    -0.74470
O19         O  0.10650645  0.05250982  0.97645694    -0.74400
O20         O  0.22898865  0.05373882  0.02876679    -0.74380
O21         O  0.22943100  0.05259972  0.97656014    -0.74350
O22         O  0.10604978  0.05361775  0.02862109    -0.74420
Ni23       Ni  0.16408571  0.27503727  0.00288691     1.25410
Ni24       Ni  0.16787801  0.05720189  0.00259313     1.25360
C25         C  0.09332144  0.00003566  0.03951212     0.87850
C26         C  0.23879089  0.99852964  0.96598422     0.87780
C27         C  0.23825123  0.33351329  0.03964665     0.87810
C28         C  0.09388948  0.33178053  0.96582107     0.87980
C29         C  0.16609290  0.99867235  0.14473702     0.00660
C30         C  0.16597060  0.32901503  0.16989184     0.00660
O31         O  0.26327798  0.04629111  0.87884020    -0.74330
O32         O  0.06303861  0.05035136  0.92886863    -0.74360
O33         O  0.07253762  0.04637286  0.87849616    -0.74420
O34         O  0.27364551  0.05035752  0.92905244    -0.74470
O35         O  0.27009784  0.27635270  0.92993663    -0.74400
O36         O  0.06852459  0.27308943  0.87938941    -0.74380
O37         O  0.05954357  0.27635615  0.92967699    -0.74350
O38         O  0.25996198  0.27301536  0.87977267    -0.74420
Ni39       Ni  0.33493188  0.05223222  0.90280354     1.25410
Ni40       Ni  0.33106683  0.27080683  0.90379848     1.25360
C41         C  0.23236274  0.32586732  0.87436989     0.87850
C42         C  0.07226298  0.33063778  0.94009345     0.87780
C43         C  0.09967309  0.32594898  0.87383734     0.87810
C44         C  0.26083650  0.33066351  0.94030588     0.87980
C45         C  0.16647933  0.32447123  0.86080907     0.00660
C46         C  0.16799033  0.31886249  0.83571564     0.00660
C47         C  0.32384120  0.17091255  0.67050974     0.00660
C48         C  0.32958780  0.16874348  0.64541751     0.00660
O49         O  0.05081037  0.26529709  0.62694808    -0.74330
O50         O  0.05291646  0.06528248  0.57699606    -0.74360
O51         O  0.05080427  0.07465240  0.62742578    -0.74420
O52         O  0.05293043  0.27565339  0.57670607    -0.74470
O53         O  0.27910540  0.27207138  0.57632045    -0.74400
O54         O  0.27767772  0.07061195  0.62704749    -0.74380
O55         O  0.27910538  0.06173372  0.57666677    -0.74350
O56         O  0.27768850  0.26198577  0.62653885    -0.74420
Ni57       Ni  0.05577153  0.00369792  0.60299914     1.25410
Ni58       Ni  0.27453209  0.99980200  0.60255572     1.25360
C59         C  0.33063698  0.23442369  0.63171824     0.87850
C60         C  0.33294776  0.07436785  0.56598886     0.87780
C61         C  0.33062874  0.10171886  0.63243337     0.87810
C62         C  0.33296684  0.26279484  0.56568460     0.87980
O63         O  0.05381308  0.10817056  0.52940868    -0.74330
O64         O  0.05410883  0.23053106  0.47706634    -0.74360
O65         O  0.05385256  0.23130221  0.52923986    -0.74420
O66         O  0.05409264  0.10738030  0.47727755    -0.74470
O67         O  0.28019231  0.10381596  0.47722696    -0.74400
O68         O  0.27994875  0.22772172  0.52911690    -0.74380
O69         O  0.28020751  0.22694735  0.47705277    -0.74350
O70         O  0.27991540  0.10457846  0.52930856    -0.74420
Ni71       Ni  0.05800712  0.16947821  0.50324589     1.25410
Ni72       Ni  0.27606266  0.16561141  0.50317871     1.25360
C73         C  0.33340654  0.09563263  0.54020312     0.87850
C74         C  0.33387283  0.23969567  0.46624258     0.87780
C75         C  0.33344625  0.24067642  0.53997411     0.87810
C76         C  0.33386558  0.09464743  0.46642721     0.87980
C77         C  0.33727914  0.34028307  0.75326453    -0.02390
O78         O  0.28078091  0.26113275  0.37939372    -0.74330
O79         O  0.28042643  0.06051018  0.42978463    -0.74360
O80         O  0.28095183  0.07019730  0.37945869    -0.74420
O81         O  0.28037208  0.27086244  0.42972858    -0.74470
O82         O  0.05419483  0.27440995  0.42967897    -0.74400
O83         O  0.05407781  0.07377981  0.37944157    -0.74380
O84         O  0.05424822  0.06405592  0.42979395    -0.74350
O85         O  0.05392116  0.26486743  0.37936092    -0.74420
Ni86       Ni  0.27674393  0.33221864  0.40364541     1.25410
Ni87       Ni  0.05798895  0.33608687  0.40362472     1.25360
C88         C  0.33404616  0.23384825  0.37429144     0.87850
C89         C  0.33397113  0.07314441  0.44064640     0.87780
C90         C  0.33423139  0.10111532  0.37434030     0.87750
C91         C  0.33393194  0.26157418  0.44052161     0.87980
C92         C  0.33432257  0.16746311  0.36097342     0.00660
C93         C  0.33564375  0.16746398  0.33578640     0.00660
C94         C  0.33286393  0.33446693  0.25276744    -0.02390
C95         C  0.27554811  0.23306981  0.30707359    -0.21210
C96         C  0.33306074  0.22523712  0.31998394    -0.09250
C97         C  0.05731524  0.24695722  0.30898492     0.29600
C98         C  0.05789738  0.26945966  0.28455612    -0.21210
C99         C  0.33361969  0.27769821  0.27121080    -0.09270
C100        C  0.27567734  0.25596052  0.28270040     0.29610
F101        F  0.21828657  0.26079994  0.27116611    -0.19790
H102        H  0.23079642  0.21503240  0.31501408     0.17970
H103        H  0.10320772  0.28663541  0.27691325     0.17980
F104        F  0.11371759  0.24079145  0.32117802    -0.19780
C105        C  0.27678529  0.06526082  0.28541724    -0.21210
C106        C  0.33341692  0.05752028  0.27132415    -0.09250
C107        C  0.05892650  0.07890820  0.28220912     0.29600
C108        C  0.06077451  0.10147353  0.30663374    -0.21210
C109        C  0.33745165  0.10938162  0.32015535    -0.09270
C110        C  0.27912425  0.08747214  0.30987881     0.29610
F111        F  0.22359314  0.09371143  0.32274979    -0.19790
H112        H  0.23093951  0.04805197  0.27827258     0.17970
H113        H  0.10610380  0.11936178  0.31412107     0.17980
F114        F  0.11557480  0.07396112  0.27003094    -0.19780
C115        C  0.26962809  0.24552836  0.69799709    -0.21210
C116        C  0.32563463  0.23095477  0.68518147    -0.09250
C117        C  0.05163946  0.25005636  0.69533846     0.29600
C118        C  0.05514985  0.27387142  0.71957108    -0.21210
C119        C  0.33255167  0.28671321  0.73332331    -0.09270
C120        C  0.27261165  0.27123035  0.72193700     0.29610
F121        F  0.21643158  0.28355318  0.73339386    -0.19790
H122        H  0.22345168  0.23096541  0.69039667     0.17970
H123        H  0.10179778  0.28699506  0.72691369     0.17980
F124        F  0.10654114  0.23915362  0.68266316    -0.19780
C125        C  0.05274922  0.10345814  0.69755609    -0.21210
C126        C  0.32610441  0.11500656  0.68724451    -0.09250
C127        C  0.27103015  0.10050953  0.70138699     0.29600
C128        C  0.27623344  0.08108528  0.72612333    -0.21210
C129        C  0.33617508  0.06650965  0.73641067    -0.09270
C130        C  0.05820361  0.08268889  0.72209634     0.29610
F131        F  0.11776586  0.07253596  0.73089195    -0.19790
H132        H  0.09572623  0.11639048  0.68720035     0.17970
H133        H  0.23270117  0.06989998  0.73631972     0.17980
F134        F  0.21218139  0.11005450  0.69170581    -0.19780
C135        C  0.24826550  0.38190654  0.81246344    -0.21210
C136        C  0.22752584  0.32111722  0.82082450    -0.09250
C137        C  0.24008274  0.93389661  0.80623669     0.29600
C138        C  0.26542171  0.94148958  0.78242203    -0.21210
C139        C  0.28341785  0.33620807  0.77298363    -0.09270
C140        C  0.27274746  0.38999018  0.78847253     0.29610
F141        F  0.95551649  0.45043897  0.78095112    -0.19790
H142        H  0.23837127  0.42399907  0.82352394     0.17970
H143        H  0.27495834  0.89857851  0.77188467     0.17980
F144        F  0.22269134  0.87412891  0.81428227    -0.19780
C145        C  0.07325481  0.27511282  0.78092260    -0.21210
C146        C  0.06293258  0.33592369  0.77029312    -0.09250
C147        C  0.08313737  0.05741008  0.78424194     0.29600
C148        C  0.10398743  0.05136865  0.80873179    -0.21210
C149        C  0.11187164  0.32411193  0.81929018    -0.09270
C150        C  0.09298731  0.26944892  0.80559614     0.29610
F151        F  0.09707417  0.21025138  0.81579684    -0.19790
H152        H  0.05762299  0.23185901  0.77122996     0.17970
H153        H  0.12081968  0.09395585  0.81866859     0.17980
F154        F  0.07901054  0.11743297  0.77488394    -0.19780
C155        C  0.23236263  0.05710638  0.19936716    -0.21210
C156        C  0.22381052  0.00003716  0.18569183    -0.09250
C157        C  0.24487548  0.27609926  0.19589975     0.29600
C158        C  0.26691645  0.27483032  0.22038285    -0.21210
C159        C  0.27588262  0.33201465  0.23448648    -0.09270
C160        C  0.25468702  0.05633905  0.22378906     0.29610
F161        F  0.25855754  0.11304990  0.23625309    -0.19790
H162        H  0.21468036  0.10158549  0.19204420     0.17970
H163        H  0.95041346  0.22981056  0.22744538     0.17980
F164        F  0.23957934  0.22048194  0.18270807    -0.19780
C165        C  0.07508146  0.94321605  0.22432426    -0.21210
C166        C  0.05561251  0.33581663  0.23406309    -0.09250
C167        C  0.06573468  0.39118847  0.21903910     0.29600
C168        C  0.08826210  0.38596214  0.19469570    -0.21210
C169        C  0.10775232  0.99359617  0.18548214    -0.09270
C170        C  0.09729216  0.93834794  0.19997383     0.29610
F171        F  0.11400298  0.88016663  0.19118556    -0.19790
H172        H  0.06724811  0.89926490  0.23468955     0.17970
H173        H  0.09736783  0.42917287  0.18390392     0.17980
F174        F  0.38300415  0.45002006  0.22729221    -0.19780
O175        O  0.25996599  0.61278173  0.12629641    -0.74330
O176        O  0.05899229  0.61304201  0.07598923    -0.74360
O177        O  0.06864817  0.61254136  0.12624336    -0.74420
O178        O  0.26955875  0.61317836  0.07603147    -0.74470
O179        O  0.27323750  0.38720300  0.07624097    -0.74400
O180        O  0.07253085  0.38584825  0.12648826    -0.74380
O181        O  0.06263389  0.38706960  0.07617248    -0.74350
O182        O  0.26341180  0.38609940  0.12655334    -0.74420
Ni183      Ni  0.33082026  0.60901481  0.10206711     1.25410
Ni184      Ni  0.00143886  0.39047116  0.10234055     1.25360
C185        C  0.23249639  0.33264817  0.13145774     0.87850
C186        C  0.07171802  0.33344933  0.06524602     0.87780
C187        C  0.09976956  0.66572447  0.13140977     0.87810
C188        C  0.26030046  0.66693189  0.06533115     0.87980
O189        O  0.10252176  0.61284540  0.02879013    -0.74330
O190        O  0.22594457  0.61183098  0.97697837    -0.74360
O191        O  0.22544008  0.61296880  0.02892978    -0.74420
O192        O  0.10302515  0.61174579  0.97681910    -0.74470
O193        O  0.10651644  0.38584327  0.97645719    -0.74400
O194        O  0.22899810  0.38707203  0.02876699    -0.74380
O195        O  0.22944100  0.38593315  0.97656039    -0.74350
O196        O  0.10605924  0.38695093  0.02862134    -0.74420
Ni197      Ni  0.16408604  0.60837056  0.00288693     1.25410
Ni198      Ni  0.16788772  0.39053520  0.00259337     1.25360
C199        C  0.09333051  0.33336881  0.03951231     0.87850
C200        C  0.23880138  0.33186317  0.96598444     0.87780
C201        C  0.23825145  0.66684664  0.03964668     0.87810
C202        C  0.09388991  0.66511377  0.96582106     0.87980
C203        C  0.16610003  0.33200545  0.14473718     0.00660
C204        C  0.16597049  0.66234857  0.16989181     0.00660
O205        O  0.26329000  0.37962631  0.87884069    -0.74330
O206        O  0.06305089  0.38368542  0.92886877    -0.74360
O207        O  0.07254950  0.37970802  0.87849627    -0.74420
O208        O  0.27365778  0.38369157  0.92905292    -0.74470
O209        O  0.27009822  0.60968601  0.92993665    -0.74400
O210        O  0.06852491  0.60642308  0.87938943    -0.74380
O211        O  0.05954394  0.60968947  0.92967697    -0.74350
O212        O  0.25996223  0.60634900  0.87977268    -0.74420
Ni213      Ni  0.33494400  0.38556683  0.90280386     1.25410
Ni214      Ni  0.33106715  0.60414030  0.90379848     1.25360
C215        C  0.23236303  0.65920102  0.87436992     0.87850
C216        C  0.07226339  0.66397107  0.94009346     0.87780
C217        C  0.09967338  0.65928269  0.87383743     0.87810
C218        C  0.26083691  0.66399679  0.94030593     0.87980
C219        C  0.16647953  0.65780514  0.86080914     0.00660
C220        C  0.16799024  0.65219741  0.83571569     0.00660
C221        C  0.32384865  0.50424506  0.67050966     0.00660
C222        C  0.32959369  0.50207665  0.64541739     0.00660
O223        O  0.05081281  0.59863253  0.62694815    -0.74330
O224        O  0.05292538  0.39861445  0.57699634    -0.74360
O225        O  0.05080986  0.40798464  0.62742614    -0.74420
O226        O  0.05293252  0.60898901  0.57670615    -0.74470
O227        O  0.27910749  0.60540334  0.57632047    -0.74400
O228        O  0.27768333  0.40394618  0.62704695    -0.74380
O229        O  0.27911430  0.39506765  0.57666644    -0.74350
O230        O  0.27769094  0.59531724  0.62653889    -0.74420
Ni231      Ni  0.05577752  0.33702981  0.60299958     1.25410
Ni232      Ni  0.27453810  0.33313621  0.60255536     1.25360
C233        C  0.33064046  0.56775707  0.63171825     0.87850
C234        C  0.33295728  0.40770092  0.56598885     0.87780
C235        C  0.33063450  0.43505217  0.63243320     0.87810
C236        C  0.33296939  0.59612857  0.56568466     0.87980
O237        O  0.05382278  0.44150619  0.52940883    -0.74330
O238        O  0.05411283  0.56386662  0.47706635    -0.74360
O239        O  0.05385668  0.56463774  0.52923997    -0.74420
O240        O  0.05410212  0.44071599  0.47727746    -0.74470
O241        O  0.28020179  0.43714739  0.47722717    -0.74400
O242        O  0.27995288  0.56105296  0.52911697    -0.74380
O243        O  0.28021151  0.56027854  0.47705287    -0.74350
O244        O  0.27992510  0.43790991  0.52930854    -0.74420
Ni245      Ni  0.05801402  0.50281399  0.50324594     1.25410
Ni246      Ni  0.27606957  0.49894258  0.50317880     1.25360
C247        C  0.33341652  0.42896604  0.54020316     0.87850
C248        C  0.33387629  0.57302903  0.46624263     0.87780
C249        C  0.33344985  0.57400988  0.53997419     0.87810
C250        C  0.33387525  0.42798103  0.46642726     0.87980
C251        C  0.33727723  0.67361477  0.75326445    -0.02390
O252        O  0.28078295  0.59446432  0.37939376    -0.74330
O253        O  0.28043491  0.39384466  0.42978498    -0.74360
O254        O  0.28095690  0.40353159  0.37945914    -0.74420
O255        O  0.28037398  0.60419412  0.42972866    -0.74470
O256        O  0.05419673  0.60774498  0.42967892    -0.74400
O257        O  0.05408288  0.40711259  0.37944114    -0.74380
O258        O  0.05425669  0.39738883  0.42979364    -0.74350
O259        O  0.05392320  0.59820265  0.37936087    -0.74420
Ni260      Ni  0.27674368  0.66555005  0.40364539     1.25410
Ni261      Ni  0.05798870  0.66942207  0.40362475     1.25360
C262        C  0.33404913  0.56718169  0.37429142     0.87850
C263        C  0.33398022  0.40647809  0.44064643     0.87780
C264        C  0.33423651  0.43444885  0.37434031     0.87750
C265        C  0.33393430  0.59490753  0.44052164     0.87980
C266        C  0.33432759  0.50079662  0.36097341     0.00660
C267        C  0.33564964  0.50079749  0.33578639     0.00660
C268        C  0.33286360  0.66780020  0.25276742    -0.02390
C269        C  0.27555158  0.56640238  0.30707396    -0.21210
C270        C  0.33306500  0.55857045  0.31998390    -0.09250
C271        C  0.05731868  0.58029126  0.30898447     0.29600
C272        C  0.05789930  0.60279385  0.28455570    -0.21210
C273        C  0.33362083  0.61103156  0.27121078    -0.09270
C274        C  0.27567933  0.58929303  0.28270076     0.29610
F275        F  0.21828803  0.59413148  0.27116678    -0.19790
H276        H  0.23080049  0.54836441  0.31501479     0.17970
H277        H  0.10320910  0.61997026  0.27691255     0.17980
F278        F  0.11372175  0.57412625  0.32117714    -0.19780
C279        C  0.27679144  0.39859414  0.28541735    -0.21210
C280        C  0.33342299  0.39085333  0.27132425    -0.09250
C281        C  0.05893267  0.41224115  0.28220917     0.29600
C282        C  0.06078074  0.43480726  0.30663369    -0.21210
C283        C  0.33745794  0.44271511  0.32015537    -0.09270
C284        C  0.27913057  0.42080517  0.30987895     0.29610
F285        F  0.22359954  0.42704399  0.32275004    -0.19790
H286        H  0.23094558  0.38138547  0.27827271     0.17970
H287        H  0.10611001  0.45269589  0.31412094     0.17980
F288        F  0.11558092  0.40729352  0.27003102    -0.19780
C289        C  0.26963214  0.57885967  0.69799636    -0.21210
C290        C  0.32564007  0.56428696  0.68518149    -0.09250
C291        C  0.05164373  0.58338864  0.69533939     0.29600
C292        C  0.05515160  0.60720325  0.71957209    -0.21210
C293        C  0.33255200  0.62004425  0.73332354    -0.09270
C294        C  0.27261322  0.60456048  0.72193650     0.29610
F295        F  0.21643207  0.61688136  0.73339288    -0.19790
H296        H  0.22345667  0.56429651  0.69039517     0.17970
H297        H  0.10179868  0.62032739  0.72691534     0.17980
F298        F  0.10654669  0.57248679  0.68266482    -0.19780
C299        C  0.05275969  0.43678929  0.69755452    -0.21210
C300        C  0.32611368  0.44833879  0.68724423    -0.09250
C301        C  0.27104112  0.43384215  0.70138778     0.29600
C302        C  0.27624734  0.41441860  0.72612408    -0.21210
C303        C  0.33619000  0.39984175  0.73641016    -0.09270
C304        C  0.05821697  0.41601889  0.72209453     0.29610
F305        F  0.11778011  0.40586295  0.73088863    -0.19790
H306        H  0.09573552  0.44972090  0.68719787     0.17970
H307        H  0.23271618  0.40323479  0.73632145     0.17980
F308        F  0.21219120  0.44338735  0.69170771    -0.19780
C309        C  0.24826418  0.71524056  0.81246280    -0.21210
C310        C  0.22752551  0.65445159  0.82082449    -0.09250
C311        C  0.24010083  0.26723335  0.80623844     0.29600
C312        C  0.26544068  0.27482481  0.78242386    -0.21210
C313        C  0.28341521  0.66954012  0.77298318    -0.09270
C314        C  0.27274440  0.72332310  0.78847161     0.29610
F315        F  0.95551171  0.78377177  0.78094948    -0.19790
H316        H  0.23837023  0.75733358  0.82352306     0.17970
H317        H  0.27497793  0.23191319  0.77188698     0.17980
F318        F  0.22271004  0.20746610  0.81428474    -0.19780
C319        C  0.07325258  0.60844595  0.78092330    -0.21210
C320        C  0.06293001  0.66925648  0.77029349    -0.09250
C321        C  0.08315650  0.39074484  0.78424000     0.29600
C322        C  0.10400514  0.38470514  0.80873012    -0.21210
C323        C  0.11187124  0.65744642  0.81929032    -0.09270
C324        C  0.09298649  0.60278291  0.80559668     0.29610
F325        F  0.09707438  0.54358567  0.81579757    -0.19790
H326        H  0.05762044  0.56519157  0.77123106     0.17970
H327        H  0.12083742  0.42729301  0.81866649     0.17980
F328        F  0.07903147  0.45076706  0.77488110    -0.19780
C329        C  0.23236885  0.39043934  0.19936725    -0.21210
C330        C  0.22381690  0.33337001  0.18569198    -0.09250
C331        C  0.24487490  0.60943220  0.19589981     0.29600
C332        C  0.26691590  0.60816323  0.22038292    -0.21210
C333        C  0.27588215  0.66534754  0.23448653    -0.09270
C334        C  0.25469302  0.38967212  0.22378916     0.29610
F335        F  0.25856331  0.44638293  0.23625322    -0.19790
H336        H  0.21468656  0.43491837  0.19204424     0.17970
H337        H  0.95041286  0.56314349  0.22744548     0.17980
F338        F  0.23957853  0.55381490  0.18270814    -0.19780
C339        C  0.07508743  0.27654869  0.22432442    -0.21210
C340        C  0.05561215  0.66915038  0.23406303    -0.09250
C341        C  0.06573438  0.72452228  0.21903910     0.29600
C342        C  0.08826216  0.71929610  0.19469572    -0.21210
C343        C  0.10775872  0.32692877  0.18548227    -0.09270
C344        C  0.09729840  0.27168055  0.19997399     0.29610
F345        F  0.11400920  0.21349918  0.19118576    -0.19790
H346        H  0.06725408  0.23259759  0.23468975     0.17970
H347        H  0.09736819  0.76250686  0.18390401     0.17980
F348        F  0.38300380  0.78335378  0.22729228    -0.19780
O349        O  0.25995848  0.94611502  0.12629617    -0.74330
O350        O  0.05898468  0.94637544  0.07598913    -0.74360
O351        O  0.06864069  0.94587464  0.12624322    -0.74420
O352        O  0.26955113  0.94651182  0.07603117    -0.74470
O353        O  0.27323756  0.72053644  0.07624097    -0.74400
O354        O  0.07253095  0.71918183  0.12648822    -0.74380
O355        O  0.06263394  0.72040305  0.07617244    -0.74350
O356        O  0.26341190  0.71943295  0.12655333    -0.74420
Ni357      Ni  0.33081270  0.94234816  0.10206691     1.25410
Ni358      Ni  0.00143894  0.72380467  0.10234052     1.25360
C359        C  0.23249648  0.66598173  0.13145775     0.87850
C360        C  0.07171811  0.66678276  0.06524600     0.87780
C361        C  0.09976211  0.99905773  0.13140968     0.87810
C362        C  0.26029244  0.00026536  0.06533088     0.87980
O363        O  0.10251201  0.94617885  0.02878994    -0.74330
O364        O  0.22593420  0.94516430  0.97697821    -0.74360
O365        O  0.22543033  0.94630228  0.02892962    -0.74420
O366        O  0.10301479  0.94507910  0.97681897    -0.74470
O367        O  0.10651686  0.71917652  0.97645719    -0.74400
O368        O  0.22899837  0.72040537  0.02876700    -0.74380
O369        O  0.22944141  0.71926639  0.97656043    -0.74350
O370        O  0.10605951  0.72028428  0.02862132    -0.74420
Ni371      Ni  0.16407600  0.94170397  0.00288677     1.25410
Ni372      Ni  0.16788806  0.72386849  0.00259337     1.25360
C373        C  0.09333072  0.66670218  0.03951230     0.87850
C374        C  0.23880181  0.66519640  0.96598449     0.87780
C375        C  0.23824218  0.00018013  0.03964646     0.87810
C376        C  0.09387899  0.99844699  0.96582092     0.87980
C377        C  0.16610007  0.66533904  0.14473716     0.00660
C378        C  0.16596398  0.99568233  0.16989169     0.00660
O379        O  0.26329033  0.71295995  0.87884076    -0.74330
O380        O  0.06305126  0.71701875  0.92886882    -0.74360
O381        O  0.07254974  0.71304168  0.87849636    -0.74420
O382        O  0.27365815  0.71702489  0.92905300    -0.74470
O383        O  0.27008552  0.94301865  0.92993642    -0.74400
O384        O  0.06851256  0.93975428  0.87938962    -0.74380
O385        O  0.05953126  0.94302211  0.92967713    -0.74350
O386        O  0.25995013  0.93968019  0.87977247    -0.74420
Ni387      Ni  0.33494432  0.71890031  0.90280394     1.25410
Ni388      Ni  0.33105469  0.93747223  0.90379848     1.25360
C389        C  0.23235084  0.99253198  0.87436946     0.87850
C390        C  0.07225111  0.99730392  0.94009341     0.87780
C391        C  0.09966118  0.99261368  0.87383752     0.87810
C392        C  0.26082463  0.99732965  0.94030556     0.87980
C393        C  0.16646678  0.99113538  0.86080897     0.00660
C394        C  0.16797559  0.98552424  0.83571561     0.00660
C395        C  0.32384378  0.83757944  0.67050962     0.00660
C396        C  0.32958856  0.83541033  0.64541736     0.00660
O397        O  0.05080746  0.93196524  0.62694760    -0.74330
O398        O  0.05292264  0.73194992  0.57699638    -0.74360
O399        O  0.05080759  0.74131999  0.62742619    -0.74420
O400        O  0.05292409  0.94232156  0.57670570    -0.74470
O401        O  0.27909904  0.93873750  0.57632056    -0.74400
O402        O  0.27768108  0.73727775  0.62704721    -0.74380
O403        O  0.27911156  0.72839946  0.57666668    -0.74350
O404        O  0.27768556  0.92865124  0.62653907    -0.74420
Ni405      Ni  0.05577739  0.67036543  0.60299964     1.25410
Ni406      Ni  0.27453798  0.66646776  0.60255551     1.25360
C407        C  0.33063506  0.90109045  0.63171805     0.87850
C408        C  0.33295400  0.74103452  0.56598898     0.87780
C409        C  0.33063133  0.76838564  0.63243335     0.87810
C410        C  0.33296039  0.92946188  0.56568449     0.87980
O411        O  0.05381795  0.77484124  0.52940885    -0.74330
O412        O  0.05410359  0.89720105  0.47706638    -0.74360
O413        O  0.05384736  0.89797258  0.52923975    -0.74420
O414        O  0.05409742  0.77405064  0.47727757    -0.74470
O415        O  0.28019709  0.77047843  0.47722717    -0.74400
O416        O  0.27994354  0.89438431  0.52911695    -0.74380
O417        O  0.28020226  0.89360948  0.47705264    -0.74350
O418        O  0.27992027  0.77124137  0.52930864    -0.74420
Ni419      Ni  0.05800691  0.83614886  0.50324592     1.25410
Ni420      Ni  0.27606246  0.83227363  0.50317876     1.25360
C421        C  0.33341215  0.76229943  0.54020325     0.87850
C422        C  0.33386689  0.90636175  0.46624254     0.87780
C423        C  0.33344034  0.90734306  0.53997405     0.87810
C424        C  0.33387105  0.76131392  0.46642731     0.87980
C425        C  0.33726328  0.00694999  0.75326456    -0.02390
O426        O  0.28077794  0.92779831  0.37939331    -0.74330
O427        O  0.28043231  0.72717618  0.42978489    -0.74360
O428        O  0.28095457  0.73686304  0.37945904    -0.74420
O429        O  0.28036578  0.93752797  0.42972831    -0.74470
O430        O  0.05418853  0.94107713  0.42967919    -0.74400
O431        O  0.05408054  0.74044767  0.37944123    -0.74380
O432        O  0.05425409  0.73072370  0.42979375    -0.74350
O433        O  0.05391819  0.93153498  0.37936125    -0.74420
Ni434      Ni  0.27673818  0.99888414  0.40364498     1.25410
Ni435      Ni  0.05798320  0.00275420  0.40362511     1.25360
C436        C  0.33404401  0.90051486  0.37429138     0.87850
C437        C  0.33397711  0.73981120  0.44064645     0.87780
C438        C  0.33423329  0.76778209  0.37434028     0.87750
C439        C  0.33392550  0.92824045  0.44052158     0.87980
C440        C  0.33432243  0.83412982  0.36097337     0.00660
C441        C  0.33564360  0.83413074  0.33578633     0.00660
C442        C  0.33285813  0.00113394  0.25276733    -0.02390
C443        C  0.27554538  0.89973526  0.30707369    -0.21210
C444        C  0.33305864  0.89190367  0.31998380    -0.09250
C445        C  0.05731237  0.91362498  0.30898454     0.29600
C446        C  0.05789331  0.93612731  0.28455573    -0.21210
C447        C  0.33361502  0.94436524  0.27121072    -0.09270
C448        C  0.27567337  0.92262672  0.28270059     0.29610
F449        F  0.21828220  0.92746563  0.27116655    -0.19790
H450        H  0.23079424  0.88169686  0.31501436     0.17970
H451        H  0.10320324  0.95330362  0.27691265     0.17980
F452        F  0.11371528  0.90746053  0.32117739    -0.19780
C453        C  0.27678905  0.73192644  0.28541702    -0.21210
C454        C  0.33342132  0.72418648  0.27132424    -0.09250
C455        C  0.05893025  0.74557520  0.28220947     0.29600
C456        C  0.06077701  0.76814136  0.30663401    -0.21210
C457        C  0.33745347  0.77604846  0.32015533    -0.09270
C458        C  0.27912683  0.75413770  0.30987858     0.29610
F459        F  0.22359516  0.76037580  0.32274932    -0.19790
H460        H  0.23094368  0.71471706  0.27827215     0.17970
H461        H  0.10610574  0.78603064  0.31412152     0.17980
F462        F  0.11557897  0.74062851  0.27003156    -0.19780
C463        C  0.26962343  0.91219384  0.69799528    -0.21210
C464        C  0.32563259  0.89762188  0.68518112    -0.09250
C465        C  0.05163511  0.91672613  0.69533931     0.29600
C466        C  0.05514090  0.94054175  0.71957189    -0.21210
C467        C  0.33254010  0.95338124  0.73332285    -0.09270
C468        C  0.27260236  0.93789671  0.72193512     0.29610
F469        F  0.21642019  0.95021811  0.73339062    -0.19790
H470        H  0.22344880  0.89762909  0.69039375     0.17970
H471        H  0.10178715  0.95366761  0.72691549     0.17980
F472        F  0.10653908  0.90582629  0.68266512    -0.19780
C473        C  0.05275675  0.77012544  0.69755476    -0.21210
C474        C  0.32611049  0.78167387  0.68724444    -0.09250
C475        C  0.27103803  0.76717502  0.70138770     0.29600
C476        C  0.27624433  0.74774887  0.72612365    -0.21210
C477        C  0.33618725  0.73317282  0.73640975    -0.09270
C478        C  0.05821412  0.74935167  0.72209434     0.29610
F479        F  0.11777728  0.73919525  0.73088832    -0.19790
H480        H  0.09573246  0.78305928  0.68719840     0.17970
H481        H  0.23271315  0.73656315  0.73632072     0.17980
F482        F  0.21218796  0.77671973  0.69170768    -0.19780
C483        C  0.24824818  0.04856941  0.81246290    -0.21210
C484        C  0.22750953  0.98777951  0.82082363    -0.09250
C485        C  0.24010025  0.60056698  0.80623880     0.29600
C486        C  0.26543857  0.60815727  0.78242392    -0.21210
C487        C  0.28339949  0.00287342  0.77298253    -0.09270
C488        C  0.27272829  0.05665459  0.78847182     0.29610
F489        F  0.95549574  0.11710398  0.78095072    -0.19790
H490        H  0.23835421  0.09066132  0.82352383     0.17970
H491        H  0.27497552  0.56524519  0.77188727     0.17980
F492        F  0.22271073  0.54080007  0.81428583    -0.19780
C493        C  0.07323603  0.94177811  0.78092337    -0.21210
C494        C  0.06291446  0.00258979  0.77029435    -0.09250
C495        C  0.08315370  0.72407822  0.78424006     0.29600
C496        C  0.10400402  0.71803929  0.80873002    -0.21210
C497        C  0.11185531  0.99077471  0.81929098    -0.09270
C498        C  0.09296953  0.93611268  0.80559670     0.29610
F499        F  0.09705569  0.87691458  0.81579695    -0.19790
H500        H  0.05760365  0.89852463  0.77123054     0.17970
H501        H  0.12083672  0.76062747  0.81866607     0.17980
F502        F  0.07902739  0.78410013  0.77488094    -0.19780
C503        C  0.23236894  0.72377237  0.19936720    -0.21210
C504        C  0.22381673  0.66670307  0.18569198    -0.09250
C505        C  0.24486927  0.94276639  0.19589957     0.29600
C506        C  0.26691047  0.94149732  0.22038268    -0.21210
C507        C  0.27587664  0.99868152  0.23448639    -0.09270
C508        C  0.25469273  0.72300507  0.22378914     0.29610
F509        F  0.25856304  0.77971599  0.23625313    -0.19790
H510        H  0.21468702  0.76825151  0.19204413     0.17970
H511        H  0.95040757  0.89647757  0.22744516     0.17980
F512        F  0.23957323  0.88714916  0.18270783    -0.19780
C513        C  0.07508685  0.60988245  0.22432424    -0.21210
C514        C  0.05560659  0.00248396  0.23406296    -0.09250
C515        C  0.06572863  0.05785586  0.21903900     0.29600
C516        C  0.08825582  0.05262956  0.19469558    -0.21210
C517        C  0.10775852  0.66026269  0.18548221    -0.09270
C518        C  0.09729775  0.60501440  0.19997381     0.29610
F519        F  0.11400809  0.54683299  0.19118547    -0.19790
H520        H  0.06725325  0.56593120  0.23468944     0.17970
H521        H  0.09736141  0.09584027  0.18390378     0.17980
F522        F  0.38299817  0.11668743  0.22729217    -0.19780
O523        O  0.59329922  0.27944818  0.12629639    -0.74330
O524        O  0.39232556  0.27970856  0.07598924    -0.74360
O525        O  0.40198140  0.27920778  0.12624337    -0.74420
O526        O  0.60289201  0.27984493  0.07603144    -0.74470
O527        O  0.60656325  0.05386987  0.07624070    -0.74400
O528        O  0.40585679  0.05251509  0.12648811    -0.74380
O529        O  0.39595965  0.05373650  0.07617236    -0.74350
O530        O  0.59673775  0.05276625  0.12655314    -0.74420
Ni531      Ni  0.66415351  0.27568130  0.10206710     1.25410
Ni532      Ni  0.33476471  0.05713802  0.10234036     1.25360
C533        C  0.56582238  0.99931502  0.13145753     0.87850
C534        C  0.40504342  0.00011622  0.06524589     0.87780
C535        C  0.43310279  0.33239088  0.13140981     0.87810
C536        C  0.59363370  0.33359849  0.06533113     0.87980
O537        O  0.43585483  0.27951205  0.02879012    -0.74330
O538        O  0.55927750  0.27849775  0.97697832    -0.74360
O539        O  0.55877315  0.27963547  0.02892975    -0.74420
O540        O  0.43635808  0.27841254  0.97681911    -0.74470
O541        O  0.43983978  0.05250982  0.97645694    -0.74400
O542        O  0.56232199  0.05373882  0.02876679    -0.74380
O543        O  0.56276433  0.05259972  0.97656014    -0.74350
O544        O  0.43938311  0.05361775  0.02862110    -0.74420
Ni545      Ni  0.49741904  0.27503728  0.00288691     1.25410
Ni546      Ni  0.50121134  0.05720189  0.00259313     1.25360
C547        C  0.42665478  0.00003566  0.03951212     0.87850
C548        C  0.57212422  0.99852964  0.96598422     0.87780
C549        C  0.57158457  0.33351329  0.03964665     0.87810
C550        C  0.42722281  0.33178053  0.96582107     0.87980
C551        C  0.49942624  0.99867235  0.14473702     0.00660
C552        C  0.49930393  0.32901503  0.16989184     0.00660
O553        O  0.59661131  0.04629111  0.87884020    -0.74330
O554        O  0.39637194  0.05035136  0.92886863    -0.74360
O555        O  0.40587095  0.04637286  0.87849616    -0.74420
O556        O  0.60697884  0.05035752  0.92905244    -0.74470
O557        O  0.60343117  0.27635270  0.92993663    -0.74400
O558        O  0.40185793  0.27308943  0.87938941    -0.74380
O559        O  0.39287690  0.27635615  0.92967699    -0.74350
O560        O  0.59329531  0.27301536  0.87977267    -0.74420
Ni561      Ni  0.66826521  0.05223222  0.90280353     1.25410
Ni562      Ni  0.66440016  0.27080683  0.90379848     1.25360
C563        C  0.56569607  0.32586732  0.87436989     0.87850
C564        C  0.40559631  0.33063778  0.94009346     0.87780
C565        C  0.43300642  0.32594898  0.87383734     0.87810
C566        C  0.59416983  0.33066352  0.94030588     0.87980
C567        C  0.49981266  0.32447123  0.86080907     0.00660
C568        C  0.50132366  0.31886248  0.83571564     0.00660
C569        C  0.65717455  0.17091256  0.67050974     0.00660
C570        C  0.66292116  0.16874350  0.64541751     0.00660
O571        O  0.38414371  0.26529708  0.62694808    -0.74330
O572        O  0.38624981  0.06528247  0.57699606    -0.74360
O573        O  0.38413761  0.07465239  0.62742578    -0.74420
O574        O  0.38626377  0.27565338  0.57670607    -0.74470
O575        O  0.61243876  0.27207140  0.57632045    -0.74400
O576        O  0.61101108  0.07061197  0.62704749    -0.74380
O577        O  0.61243873  0.06173374  0.57666677    -0.74350
O578        O  0.61102186  0.26198579  0.62653885    -0.74420
Ni579      Ni  0.38910487  0.00369791  0.60299914     1.25410
Ni580      Ni  0.60786545  0.99980202  0.60255572     1.25360
C581        C  0.66397034  0.23442371  0.63171824     0.87850
C582        C  0.66628111  0.07436787  0.56598886     0.87780
C583        C  0.66396210  0.10171888  0.63243337     0.87810
C584        C  0.66630020  0.26279486  0.56568460     0.87980
O585        O  0.38714642  0.10817055  0.52940868    -0.74330
O586        O  0.38744217  0.23053104  0.47706634    -0.74360
O587        O  0.38718590  0.23130219  0.52923986    -0.74420
O588        O  0.38742597  0.10738028  0.47727755    -0.74470
O589        O  0.61352565  0.10381598  0.47722697    -0.74400
O590        O  0.61328210  0.22772173  0.52911690    -0.74380
O591        O  0.61354086  0.22694736  0.47705277    -0.74350
O592        O  0.61324875  0.10457848  0.52930856    -0.74420
Ni593      Ni  0.39134046  0.16947820  0.50324589     1.25410
Ni594      Ni  0.60939601  0.16561143  0.50317871     1.25360
C595        C  0.66673990  0.09563264  0.54020312     0.87850
C596        C  0.66720618  0.23969569  0.46624258     0.87780
C597        C  0.66677960  0.24067644  0.53997411     0.87810
C598        C  0.66719892  0.09464744  0.46642721     0.87980
C599        C  0.67061246  0.34028307  0.75326453    -0.02390
O600        O  0.61411424  0.26113276  0.37939372    -0.74330
O601        O  0.61375977  0.06051020  0.42978463    -0.74360
O602        O  0.61428516  0.07019731  0.37945869    -0.74420
O603        O  0.61370542  0.27086246  0.42972859    -0.74470
O604        O  0.38752816  0.27440994  0.42967897    -0.74400
O605        O  0.38741113  0.07377980  0.37944157    -0.74380
O606        O  0.38758155  0.06405591  0.42979395    -0.74350
O607        O  0.38725449  0.26486742  0.37936092    -0.74420
Ni608      Ni  0.61007726  0.33221866  0.40364541     1.25410
Ni609      Ni  0.39132228  0.33608685  0.40362472     1.25360
C610        C  0.66737949  0.23384827  0.37429144     0.87850
C611        C  0.66730447  0.07314442  0.44064640     0.87780
C612        C  0.66756472  0.10111534  0.37434030     0.87750
C613        C  0.66726528  0.26157420  0.44052161     0.87980
C614        C  0.66765590  0.16746313  0.36097342     0.00660
C615        C  0.66897709  0.16746400  0.33578640     0.00660
C616        C  0.66619727  0.33446694  0.25276744    -0.02390
C617        C  0.60888145  0.23306983  0.30707359    -0.21210
C618        C  0.66639407  0.22523713  0.31998394    -0.09250
C619        C  0.39064856  0.24695720  0.30898492     0.29600
C620        C  0.39123071  0.26945964  0.28455612    -0.21210
C621        C  0.66695303  0.27769823  0.27121081    -0.09270
C622        C  0.60901068  0.25596054  0.28270041     0.29610
F623        F  0.55161991  0.26079997  0.27116611    -0.19790
H624        H  0.56412975  0.21503242  0.31501408     0.17970
H625        H  0.43654105  0.28663539  0.27691325     0.17980
F626        F  0.44705092  0.24079143  0.32117802    -0.19780
C627        C  0.61011862  0.06526084  0.28541724    -0.21210
C628        C  0.66675026  0.05752030  0.27132415    -0.09250
C629        C  0.39225983  0.07890818  0.28220912     0.29600
C630        C  0.39410784  0.10147351  0.30663374    -0.21210
C631        C  0.67078498  0.10938164  0.32015535    -0.09270
C632        C  0.61245759  0.08747216  0.30987881     0.29610
F633        F  0.55692648  0.09371145  0.32274979    -0.19790
H634        H  0.56427284  0.04805200  0.27827258     0.17970
H635        H  0.43943713  0.11936176  0.31412108     0.17980
F636        F  0.44890813  0.07396110  0.27003094    -0.19780
C637        C  0.60296143  0.24552839  0.69799709    -0.21210
C638        C  0.65896798  0.23095478  0.68518147    -0.09250
C639        C  0.38497278  0.25005635  0.69533846     0.29600
C640        C  0.38848318  0.27387142  0.71957108    -0.21210
C641        C  0.66588500  0.28671322  0.73332331    -0.09270
C642        C  0.60594498  0.27123036  0.72193700     0.29610
F643        F  0.54976491  0.28355320  0.73339385    -0.19790
H644        H  0.55678503  0.23096545  0.69039665     0.17970
H645        H  0.43513112  0.28699507  0.72691368     0.17980
F646        F  0.43987447  0.23915362  0.68266316    -0.19780
C647        C  0.38608256  0.10345814  0.69755609    -0.21210
C648        C  0.65943775  0.11500658  0.68724451    -0.09250
C649        C  0.60436349  0.10050955  0.70138699     0.29600
C650        C  0.60956677  0.08108529  0.72612333    -0.21210
C651        C  0.66950841  0.06650965  0.73641067    -0.09270
C652        C  0.39153694  0.08268889  0.72209634     0.29610
F653        F  0.45109919  0.07253597  0.73089195    -0.19790
H654        H  0.42905956  0.11639047  0.68720035     0.17970
H655        H  0.56603450  0.06990000  0.73631972     0.17980
F656        F  0.54551473  0.11005455  0.69170581    -0.19780
C657        C  0.58159882  0.38190653  0.81246344    -0.21210
C658        C  0.56085917  0.32111722  0.82082450    -0.09250
C659        C  0.57341606  0.93389661  0.80623668     0.29600
C660        C  0.59875502  0.94148958  0.78242203    -0.21210
C661        C  0.61675117  0.33620807  0.77298362    -0.09270
C662        C  0.60608077  0.38999018  0.78847253     0.29610
F663        F  0.28884984  0.45043896  0.78095112    -0.19790
H664        H  0.57170459  0.42399907  0.82352394     0.17970
H665        H  0.60829165  0.89857851  0.77188467     0.17980
F666        F  0.55602467  0.87412890  0.81428227    -0.19780
C667        C  0.40658815  0.27511281  0.78092260    -0.21210
C668        C  0.39626592  0.33592368  0.77029312    -0.09250
C669        C  0.41647071  0.05741007  0.78424194     0.29600
C670        C  0.43732076  0.05136864  0.80873179    -0.21210
C671        C  0.44520496  0.32411192  0.81929018    -0.09270
C672        C  0.42632064  0.26944892  0.80559614     0.29610
F673        F  0.43040750  0.21025138  0.81579684    -0.19790
H674        H  0.39095634  0.23185901  0.77122996     0.17970
H675        H  0.45415300  0.09395584  0.81866859     0.17980
F676        F  0.41234388  0.11743296  0.77488394    -0.19780
C677        C  0.56569596  0.05710638  0.19936716    -0.21210
C678        C  0.55714386  0.00003716  0.18569183    -0.09250
C679        C  0.57820882  0.27609927  0.19589975     0.29600
C680        C  0.60024978  0.27483033  0.22038285    -0.21210
C681        C  0.60921596  0.33201466  0.23448649    -0.09270
C682        C  0.58802036  0.05633906  0.22378906     0.29610
F683        F  0.59189088  0.11304991  0.23625309    -0.19790
H684        H  0.54801370  0.10158550  0.19204420     0.17970
H685        H  0.28374679  0.22981055  0.22744537     0.17980
F686        F  0.57291268  0.22048194  0.18270807    -0.19780
C687        C  0.40841479  0.94321604  0.22432426    -0.21210
C688        C  0.38894585  0.33581662  0.23406309    -0.09250
C689        C  0.39906801  0.39118846  0.21903910     0.29600
C690        C  0.42159543  0.38596214  0.19469570    -0.21210
C691        C  0.44108565  0.99359617  0.18548214    -0.09270
C692        C  0.43062550  0.93834793  0.19997383     0.29610
F693        F  0.44733632  0.88016662  0.19118556    -0.19790
H694        H  0.40058144  0.89926489  0.23468955     0.17970
H695        H  0.43070116  0.42917287  0.18390392     0.17980
F696        F  0.71633749  0.45002008  0.22729221    -0.19780
O697        O  0.59329932  0.61278173  0.12629641    -0.74330
O698        O  0.39232562  0.61304201  0.07598923    -0.74360
O699        O  0.40198150  0.61254136  0.12624336    -0.74420
O700        O  0.60289208  0.61317836  0.07603147    -0.74470
O701        O  0.60657083  0.38720300  0.07624097    -0.74400
O702        O  0.40586418  0.38584825  0.12648826    -0.74380
O703        O  0.39596722  0.38706960  0.07617248    -0.74350
O704        O  0.59674513  0.38609940  0.12655334    -0.74420
Ni705      Ni  0.66415359  0.60901481  0.10206711     1.25410
Ni706      Ni  0.33477220  0.39047116  0.10234055     1.25360
C707        C  0.56582972  0.33264817  0.13145774     0.87850
C708        C  0.40505135  0.33344933  0.06524602     0.87780
C709        C  0.43310289  0.66572447  0.13140977     0.87810
C710        C  0.59363380  0.66693190  0.06533115     0.87980
O711        O  0.43585510  0.61284540  0.02879013    -0.74330
O712        O  0.55927790  0.61183098  0.97697837    -0.74360
O713        O  0.55877341  0.61296880  0.02892978    -0.74420
O714        O  0.43635849  0.61174579  0.97681910    -0.74470
O715        O  0.43984977  0.38584328  0.97645719    -0.74400
O716        O  0.56233143  0.38707203  0.02876699    -0.74380
O717        O  0.56277433  0.38593316  0.97656039    -0.74350
O718        O  0.43939257  0.38695093  0.02862134    -0.74420
Ni719      Ni  0.49741938  0.60837056  0.00288693     1.25410
Ni720      Ni  0.50122105  0.39053520  0.00259337     1.25360
C721        C  0.42666384  0.33336882  0.03951232     0.87850
C722        C  0.57213471  0.33186317  0.96598444     0.87780
C723        C  0.57158479  0.66684664  0.03964668     0.87810
C724        C  0.42722324  0.66511378  0.96582106     0.87980
C725        C  0.49943336  0.33200545  0.14473718     0.00660
C726        C  0.49930382  0.66234857  0.16989181     0.00660
O727        O  0.59662333  0.37962631  0.87884069    -0.74330
O728        O  0.39638422  0.38368542  0.92886877    -0.74360
O729        O  0.40588284  0.37970802  0.87849627    -0.74420
O730        O  0.60699111  0.38369157  0.92905292    -0.74470
O731        O  0.60343155  0.60968602  0.92993665    -0.74400
O732        O  0.40185825  0.60642308  0.87938943    -0.74380
O733        O  0.39287728  0.60968947  0.92967697    -0.74350
O734        O  0.59329556  0.60634900  0.87977267    -0.74420
Ni735      Ni  0.66827734  0.38556683  0.90280386     1.25410
Ni736      Ni  0.66440048  0.60414030  0.90379848     1.25360
C737        C  0.56569636  0.65920102  0.87436992     0.87850
C738        C  0.40559672  0.66397107  0.94009346     0.87780
C739        C  0.43300672  0.65928269  0.87383743     0.87810
C740        C  0.59417024  0.66399679  0.94030593     0.87980
C741        C  0.49981286  0.65780514  0.86080914     0.00660
C742        C  0.50132357  0.65219740  0.83571569     0.00660
C743        C  0.65718200  0.50424508  0.67050965     0.00660
C744        C  0.66292705  0.50207667  0.64541739     0.00660
O745        O  0.38414615  0.59863251  0.62694815    -0.74330
O746        O  0.38625872  0.39861443  0.57699634    -0.74360
O747        O  0.38414320  0.40798463  0.62742614    -0.74420
O748        O  0.38626586  0.60898899  0.57670615    -0.74470
O749        O  0.61244085  0.60540336  0.57632047    -0.74400
O750        O  0.61101669  0.40394620  0.62704695    -0.74380
O751        O  0.61244765  0.39506767  0.57666644    -0.74350
O752        O  0.61102430  0.59531726  0.62653889    -0.74420
Ni753      Ni  0.38911086  0.33702979  0.60299958     1.25410
Ni754      Ni  0.60787146  0.33313623  0.60255536     1.25360
C755        C  0.66397382  0.56775709  0.63171825     0.87850
C756        C  0.66629064  0.40770094  0.56598885     0.87780
C757        C  0.66396786  0.43505219  0.63243320     0.87810
C758        C  0.66630275  0.59612859  0.56568466     0.87980
O759        O  0.38715612  0.44150617  0.52940883    -0.74330
O760        O  0.38744616  0.56386661  0.47706635    -0.74360
O761        O  0.38719002  0.56463772  0.52923997    -0.74420
O762        O  0.38743545  0.44071598  0.47727746    -0.74470
O763        O  0.61353513  0.43714740  0.47722718    -0.74400
O764        O  0.61328623  0.56105298  0.52911697    -0.74380
O765        O  0.61354486  0.56027856  0.47705287    -0.74350
O766        O  0.61325845  0.43790992  0.52930854    -0.74420
Ni767      Ni  0.39134736  0.50281398  0.50324594     1.25410
Ni768      Ni  0.60940292  0.49894260  0.50317880     1.25360
C769        C  0.66674987  0.42896606  0.54020316     0.87850
C770        C  0.66720963  0.57302905  0.46624263     0.87780
C771        C  0.66678321  0.57400990  0.53997419     0.87810
C772        C  0.66720860  0.42798104  0.46642726     0.87980
C773        C  0.67061054  0.67361477  0.75326445    -0.02390
O774        O  0.61411628  0.59446433  0.37939376    -0.74330
O775        O  0.61376825  0.39384467  0.42978498    -0.74360
O776        O  0.61429024  0.40353161  0.37945914    -0.74420
O777        O  0.61370732  0.60419414  0.42972866    -0.74470
O778        O  0.38753006  0.60774497  0.42967892    -0.74400
O779        O  0.38741621  0.40711258  0.37944114    -0.74380
O780        O  0.38759002  0.39738882  0.42979364    -0.74350
O781        O  0.38725652  0.59820263  0.37936087    -0.74420
Ni782      Ni  0.61007701  0.66555007  0.40364539     1.25410
Ni783      Ni  0.39132202  0.66942205  0.40362475     1.25360
C784        C  0.66738246  0.56718170  0.37429142     0.87850
C785        C  0.66731356  0.40647811  0.44064643     0.87780
C786        C  0.66756984  0.43444887  0.37434031     0.87750
C787        C  0.66726764  0.59490755  0.44052164     0.87980
C788        C  0.66766093  0.50079663  0.36097341     0.00660
C789        C  0.66898297  0.50079751  0.33578639     0.00660
C790        C  0.66619693  0.66780022  0.25276742    -0.02390
C791        C  0.60888492  0.56640240  0.30707396    -0.21210
C792        C  0.66639834  0.55857047  0.31998390    -0.09250
C793        C  0.39065201  0.58029124  0.30898447     0.29600
C794        C  0.39123263  0.60279383  0.28455570    -0.21210
C795        C  0.66695417  0.61103158  0.27121079    -0.09270
C796        C  0.60901267  0.58929305  0.28270076     0.29610
F797        F  0.55162136  0.59413150  0.27116678    -0.19790
H798        H  0.56413383  0.54836443  0.31501479     0.17970
H799        H  0.43654243  0.61997024  0.27691255     0.17980
F800        F  0.44705508  0.57412623  0.32117714    -0.19780
C801        C  0.61012477  0.39859416  0.28541735    -0.21210
C802        C  0.66675633  0.39085334  0.27132425    -0.09250
C803        C  0.39226599  0.41224113  0.28220918     0.29600
C804        C  0.39411407  0.43480724  0.30663370    -0.21210
C805        C  0.67079127  0.44271513  0.32015537    -0.09270
C806        C  0.61246391  0.42080519  0.30987895     0.29610
F807        F  0.55693288  0.42704401  0.32275004    -0.19790
H808        H  0.56427892  0.38138549  0.27827271     0.17970
H809        H  0.43944334  0.45269587  0.31412094     0.17980
F810        F  0.44891425  0.40729350  0.27003102    -0.19780
C811        C  0.60296548  0.57885970  0.69799635    -0.21210
C812        C  0.65897342  0.56428698  0.68518149    -0.09250
C813        C  0.38497705  0.58338863  0.69533939     0.29600
C814        C  0.38848493  0.60720324  0.71957208    -0.21210
C815        C  0.66588532  0.62004425  0.73332354    -0.09270
C816        C  0.60594655  0.60456050  0.72193649     0.29610
F817        F  0.54976540  0.61688138  0.73339287    -0.19790
H818        H  0.55679001  0.56429655  0.69039516     0.17970
H819        H  0.43513201  0.62032740  0.72691533     0.17980
F820        F  0.43988001  0.57248678  0.68266482    -0.19780
C821        C  0.38609302  0.43678928  0.69755452    -0.21210
C822        C  0.65944702  0.44833880  0.68724423    -0.09250
C823        C  0.60437445  0.43384217  0.70138778     0.29600
C824        C  0.60958067  0.41441861  0.72612408    -0.21210
C825        C  0.66952333  0.39984176  0.73641016    -0.09270
C826        C  0.39155030  0.41601889  0.72209453     0.29610
F827        F  0.45111345  0.40586295  0.73088863    -0.19790
H828        H  0.42906885  0.44972090  0.68719787     0.17970
H829        H  0.56604951  0.40323481  0.73632145     0.17980
F830        F  0.54552454  0.44338740  0.69170772    -0.19780
C831        C  0.58159750  0.71524056  0.81246279    -0.21210
C832        C  0.56085884  0.65445159  0.82082449    -0.09250
C833        C  0.57343415  0.26723335  0.80623844     0.29600
C834        C  0.59877399  0.27482481  0.78242386    -0.21210
C835        C  0.61674852  0.66954013  0.77298318    -0.09270
C836        C  0.60607771  0.72332310  0.78847160     0.29610
F837        F  0.28884505  0.78377176  0.78094948    -0.19790
H838        H  0.57170355  0.75733357  0.82352306     0.17970
H839        H  0.60831124  0.23191319  0.77188698     0.17980
F840        F  0.55604337  0.20746610  0.81428474    -0.19780
C841        C  0.40658592  0.60844594  0.78092330    -0.21210
C842        C  0.39626335  0.66925648  0.77029349    -0.09250
C843        C  0.41648984  0.39074483  0.78424000     0.29600
C844        C  0.43733846  0.38470513  0.80873012    -0.21210
C845        C  0.44520457  0.65744641  0.81929032    -0.09270
C846        C  0.42631982  0.60278291  0.80559668     0.29610
F847        F  0.43040770  0.54358566  0.81579757    -0.19790
H848        H  0.39095379  0.56519157  0.77123106     0.17970
H849        H  0.45417074  0.42729300  0.81866649     0.17980
F850        F  0.41236482  0.45076705  0.77488110    -0.19780
C851        C  0.56570218  0.39043934  0.19936725    -0.21210
C852        C  0.55715023  0.33337001  0.18569198    -0.09250
C853        C  0.57820824  0.60943221  0.19589981     0.29600
C854        C  0.60024924  0.60816324  0.22038292    -0.21210
C855        C  0.60921549  0.66534755  0.23448653    -0.09270
C856        C  0.58802636  0.38967213  0.22378916     0.29610
F857        F  0.59189665  0.44638294  0.23625322    -0.19790
H858        H  0.54801989  0.43491838  0.19204423     0.17970
H859        H  0.28374619  0.56314348  0.22744547     0.17980
F860        F  0.57291187  0.55381490  0.18270814    -0.19780
C861        C  0.40842076  0.27654868  0.22432442    -0.21210
C862        C  0.38894548  0.66915037  0.23406303    -0.09250
C863        C  0.39906771  0.72452227  0.21903910     0.29600
C864        C  0.42159549  0.71929610  0.19469572    -0.21210
C865        C  0.44109206  0.32692876  0.18548227    -0.09270
C866        C  0.43063174  0.27168054  0.19997399     0.29610
F867        F  0.44734253  0.21349918  0.19118576    -0.19790
H868        H  0.40058741  0.23259758  0.23468975     0.17970
H869        H  0.43070153  0.76250686  0.18390401     0.17980
F870        F  0.71633714  0.78335379  0.22729227    -0.19780
O871        O  0.59329181  0.94611502  0.12629617    -0.74330
O872        O  0.39231801  0.94637544  0.07598913    -0.74360
O873        O  0.40197403  0.94587464  0.12624322    -0.74420
O874        O  0.60288446  0.94651182  0.07603117    -0.74470
O875        O  0.60657089  0.72053644  0.07624097    -0.74400
O876        O  0.40586428  0.71918183  0.12648822    -0.74380
O877        O  0.39596728  0.72040306  0.07617244    -0.74350
O878        O  0.59674523  0.71943295  0.12655333    -0.74420
Ni879      Ni  0.66414603  0.94234817  0.10206691     1.25410
Ni880      Ni  0.33477228  0.72380467  0.10234052     1.25360
C881        C  0.56582981  0.66598173  0.13145775     0.87850
C882        C  0.40505144  0.66678276  0.06524600     0.87780
C883        C  0.43309545  0.99905774  0.13140968     0.87810
C884        C  0.59362578  0.00026537  0.06533088     0.87980
O885        O  0.43584535  0.94617886  0.02878994    -0.74330
O886        O  0.55926754  0.94516431  0.97697821    -0.74360
O887        O  0.55876367  0.94630228  0.02892962    -0.74420
O888        O  0.43634812  0.94507910  0.97681897    -0.74470
O889        O  0.43985019  0.71917653  0.97645719    -0.74400
O890        O  0.56233170  0.72040537  0.02876700    -0.74380
O891        O  0.56277475  0.71926639  0.97656043    -0.74350
O892        O  0.43939285  0.72028428  0.02862132    -0.74420
Ni893      Ni  0.49740933  0.94170397  0.00288677     1.25410
Ni894      Ni  0.50122140  0.72386849  0.00259337     1.25360
C895        C  0.42666406  0.66670219  0.03951230     0.87850
C896        C  0.57213514  0.66519641  0.96598449     0.87780
C897        C  0.57157551  0.00018013  0.03964646     0.87810
C898        C  0.42721232  0.99844699  0.96582092     0.87980
C899        C  0.49943341  0.66533904  0.14473716     0.00660
C900        C  0.49929732  0.99568233  0.16989169     0.00660
O901        O  0.59662366  0.71295995  0.87884076    -0.74330
O902        O  0.39638459  0.71701875  0.92886882    -0.74360
O903        O  0.40588308  0.71304168  0.87849636    -0.74420
O904        O  0.60699148  0.71702489  0.92905300    -0.74470
O905        O  0.60341885  0.94301865  0.92993642    -0.74400
O906        O  0.40184589  0.93975428  0.87938962    -0.74380
O907        O  0.39286459  0.94302211  0.92967713    -0.74350
O908        O  0.59328346  0.93968019  0.87977247    -0.74420
Ni909      Ni  0.66827765  0.71890031  0.90280394     1.25410
Ni910      Ni  0.66438802  0.93747224  0.90379848     1.25360
C911        C  0.56568417  0.99253198  0.87436946     0.87850
C912        C  0.40558444  0.99730392  0.94009342     0.87780
C913        C  0.43299451  0.99261368  0.87383752     0.87810
C914        C  0.59415796  0.99732965  0.94030556     0.87980
C915        C  0.49980011  0.99113538  0.86080897     0.00660
C916        C  0.50130891  0.98552423  0.83571561     0.00660
C917        C  0.65717713  0.83757946  0.67050962     0.00660
C918        C  0.66292192  0.83541035  0.64541736     0.00660
O919        O  0.38414080  0.93196522  0.62694760    -0.74330
O920        O  0.38625598  0.73194991  0.57699638    -0.74360
O921        O  0.38414093  0.74131998  0.62742619    -0.74420
O922        O  0.38625743  0.94232154  0.57670570    -0.74470
O923        O  0.61243240  0.93873752  0.57632056    -0.74400
O924        O  0.61101444  0.73727777  0.62704721    -0.74380
O925        O  0.61244491  0.72839948  0.57666668    -0.74350
O926        O  0.61101893  0.92865126  0.62653907    -0.74420
Ni927      Ni  0.38911073  0.67036542  0.60299964     1.25410
Ni928      Ni  0.60787134  0.66646778  0.60255551     1.25360
C929        C  0.66396842  0.90109047  0.63171805     0.87850
C930        C  0.66628735  0.74103454  0.56598898     0.87780
C931        C  0.66396470  0.76838566  0.63243335     0.87810
C932        C  0.66629375  0.92946190  0.56568449     0.87980
O933        O  0.38715129  0.77484123  0.52940885    -0.74330
O934        O  0.38743692  0.89720104  0.47706638    -0.74360
O935        O  0.38718070  0.89797256  0.52923975    -0.74420
O936        O  0.38743076  0.77405062  0.47727757    -0.74470
O937        O  0.61353044  0.77047845  0.47722717    -0.74400
O938        O  0.61327689  0.89438433  0.52911695    -0.74380
O939        O  0.61353561  0.89360950  0.47705265    -0.74350
O940        O  0.61325362  0.77124139  0.52930864    -0.74420
Ni941      Ni  0.39134025  0.83614884  0.50324592     1.25410
Ni942      Ni  0.60939581  0.83227365  0.50317877     1.25360
C943        C  0.66674550  0.76229945  0.54020325     0.87850
C944        C  0.66720023  0.90636177  0.46624254     0.87780
C945        C  0.66677369  0.90734308  0.53997405     0.87810
C946        C  0.66720439  0.76131394  0.46642731     0.87980
C947        C  0.67059659  0.00694999  0.75326456    -0.02390
O948        O  0.61411127  0.92779832  0.37939331    -0.74330
O949        O  0.61376565  0.72717620  0.42978489    -0.74360
O950        O  0.61428790  0.73686306  0.37945904    -0.74420
O951        O  0.61369912  0.93752799  0.42972831    -0.74470
O952        O  0.38752186  0.94107712  0.42967919    -0.74400
O953        O  0.38741387  0.74044766  0.37944123    -0.74380
O954        O  0.38758742  0.73072369  0.42979375    -0.74350
O955        O  0.38725152  0.93153497  0.37936125    -0.74420
Ni956      Ni  0.61007152  0.99888416  0.40364498     1.25410
Ni957      Ni  0.39131653  0.00275418  0.40362510     1.25360
C958        C  0.66737734  0.90051488  0.37429138     0.87850
C959        C  0.66731045  0.73981121  0.44064645     0.87780
C960        C  0.66756662  0.76778210  0.37434028     0.87750
C961        C  0.66725884  0.92824047  0.44052158     0.87980
C962        C  0.66765576  0.83412984  0.36097337     0.00660
C963        C  0.66897694  0.83413076  0.33578633     0.00660
C964        C  0.66619147  0.00113395  0.25276733    -0.02390
C965        C  0.60887871  0.89973528  0.30707370    -0.21210
C966        C  0.66639197  0.89190369  0.31998380    -0.09250
C967        C  0.39064570  0.91362496  0.30898453     0.29600
C968        C  0.39122664  0.93612729  0.28455573    -0.21210
C969        C  0.66694835  0.94436526  0.27121072    -0.09270
C970        C  0.60900671  0.92262674  0.28270059     0.29610
F971        F  0.55161553  0.92746565  0.27116655    -0.19790
H972        H  0.56412758  0.88169688  0.31501436     0.17970
H973        H  0.43653657  0.95330360  0.27691265     0.17980
F974        F  0.44704861  0.90746051  0.32117739    -0.19780
C975        C  0.61012239  0.73192646  0.28541702    -0.21210
C976        C  0.66675465  0.72418650  0.27132424    -0.09250
C977        C  0.39226358  0.74557518  0.28220947     0.29600
C978        C  0.39411034  0.76814134  0.30663401    -0.21210
C979        C  0.67078681  0.77604848  0.32015533    -0.09270
C980        C  0.61246017  0.75413772  0.30987858     0.29610
F981        F  0.55692850  0.76037582  0.32274931    -0.19790
H982        H  0.56427701  0.71471708  0.27827215     0.17970
H983        H  0.43943907  0.78603062  0.31412153     0.17980
F984        F  0.44891230  0.74062849  0.27003157    -0.19780
C985        C  0.60295677  0.91219387  0.69799527    -0.21210
C986        C  0.65896593  0.89762190  0.68518111    -0.09250
C987        C  0.38496843  0.91672613  0.69533931     0.29600
C988        C  0.38847423  0.94054174  0.71957189    -0.21210
C989        C  0.66587343  0.95338124  0.73332285    -0.09270
C990        C  0.60593569  0.93789673  0.72193512     0.29610
F991        F  0.54975352  0.95021813  0.73339061    -0.19790
H992        H  0.55678214  0.89762913  0.69039374     0.17970
H993        H  0.43512049  0.95366762  0.72691549     0.17980
F994        F  0.43987240  0.90582629  0.68266512    -0.19780
C995        C  0.38609008  0.77012543  0.69755475    -0.21210
C996        C  0.65944382  0.78167389  0.68724444    -0.09250
C997        C  0.60437136  0.76717505  0.70138770     0.29600
C998        C  0.60957766  0.74774888  0.72612365    -0.21210
C999        C  0.66952058  0.73317282  0.73640974    -0.09270
C1000       C  0.39154745  0.74935166  0.72209434     0.29610
F1001       F  0.45111061  0.73919526  0.73088832    -0.19790
H1002       H  0.42906579  0.78305927  0.68719840     0.17970
H1003       H  0.56604648  0.73656317  0.73632072     0.17980
F1004       F  0.54552130  0.77671977  0.69170768    -0.19780
C1005       C  0.58158150  0.04856941  0.81246290    -0.21210
C1006       C  0.56084285  0.98777951  0.82082363    -0.09250
C1007       C  0.57343357  0.60056697  0.80623880     0.29600
C1008       C  0.59877188  0.60815727  0.78242391    -0.21210
C1009       C  0.61673280  0.00287342  0.77298252    -0.09270
C1010       C  0.60606160  0.05665459  0.78847182     0.29610
F1011       F  0.28882909  0.11710397  0.78095072    -0.19790
H1012       H  0.57168753  0.09066131  0.82352383     0.17970
H1013       H  0.60830883  0.56524519  0.77188726     0.17980
F1014       F  0.55604406  0.54080006  0.81428583    -0.19780
C1015       C  0.40656937  0.94177810  0.78092337    -0.21210
C1016       C  0.39624780  0.00258978  0.77029435    -0.09250
C1017       C  0.41648704  0.72407821  0.78424006     0.29600
C1018       C  0.43733735  0.71803928  0.80873002    -0.21210
C1019       C  0.44518864  0.99077470  0.81929098    -0.09270
C1020       C  0.42630286  0.93611268  0.80559670     0.29610
F1021       F  0.43038902  0.87691457  0.81579695    -0.19790
H1022       H  0.39093700  0.89852462  0.77123053     0.17970
H1023       H  0.45417004  0.76062746  0.81866608     0.17980
F1024       F  0.41236073  0.78410012  0.77488094    -0.19780
C1025       C  0.56570227  0.72377238  0.19936720    -0.21210
C1026       C  0.55715006  0.66670308  0.18569198    -0.09250
C1027       C  0.57820261  0.94276639  0.19589957     0.29600
C1028       C  0.60024380  0.94149733  0.22038268    -0.21210
C1029       C  0.60920998  0.99868153  0.23448639    -0.09270
C1030       C  0.58802606  0.72300508  0.22378914     0.29610
F1031       F  0.59189638  0.77971600  0.23625312    -0.19790
H1032       H  0.54802036  0.76825152  0.19204413     0.17970
H1033       H  0.28374091  0.89647756  0.22744515     0.17980
F1034       F  0.57290657  0.88714917  0.18270783    -0.19780
C1035       C  0.40842018  0.60988244  0.22432424    -0.21210
C1036       C  0.38893992  0.00248395  0.23406296    -0.09250
C1037       C  0.39906196  0.05785585  0.21903901     0.29600
C1038       C  0.42158915  0.05262956  0.19469558    -0.21210
C1039       C  0.44109186  0.66026268  0.18548221    -0.09270
C1040       C  0.43063109  0.60501439  0.19997381     0.29610
F1041       F  0.44734143  0.54683298  0.19118547    -0.19790
H1042       H  0.40058658  0.56593119  0.23468944     0.17970
H1043       H  0.43069474  0.09584027  0.18390379     0.17980
F1044       F  0.71633151  0.11668744  0.22729216    -0.19780
O1045       O  0.92663255  0.27944818  0.12629639    -0.74330
O1046       O  0.72565889  0.27970856  0.07598924    -0.74360
O1047       O  0.73531474  0.27920779  0.12624337    -0.74420
O1048       O  0.93622535  0.27984493  0.07603144    -0.74470
O1049       O  0.93989659  0.05386987  0.07624070    -0.74400
O1050       O  0.73919012  0.05251509  0.12648811    -0.74380
O1051       O  0.72929298  0.05373650  0.07617236    -0.74350
O1052       O  0.93007109  0.05276625  0.12655314    -0.74420
Ni1053     Ni  0.99748684  0.27568130  0.10206710     1.25410
Ni1054     Ni  0.66809805  0.05713802  0.10234036     1.25360
C1055       C  0.89915571  0.99931502  0.13145753     0.87850
C1056       C  0.73837676  0.00011622  0.06524589     0.87780
C1057       C  0.76643613  0.33239088  0.13140981     0.87810
C1058       C  0.92696704  0.33359848  0.06533113     0.87980
O1059       O  0.76918816  0.27951205  0.02879012    -0.74330
O1060       O  0.89261083  0.27849775  0.97697832    -0.74360
O1061       O  0.89210648  0.27963547  0.02892975    -0.74420
O1062       O  0.76969141  0.27841255  0.97681911    -0.74470
O1063       O  0.77317312  0.05250983  0.97645694    -0.74400
O1064       O  0.89565532  0.05373882  0.02876679    -0.74380
O1065       O  0.89609767  0.05259972  0.97656014    -0.74350
O1066       O  0.77271645  0.05361775  0.02862109    -0.74420
Ni1067     Ni  0.83075237  0.27503728  0.00288690     1.25410
Ni1068     Ni  0.83454468  0.05720189  0.00259313     1.25360
C1069       C  0.75998811  0.00003566  0.03951212     0.87850
C1070       C  0.90545755  0.99852964  0.96598422     0.87780
C1071       C  0.90491790  0.33351329  0.03964665     0.87810
C1072       C  0.76055614  0.33178053  0.96582107     0.87980
C1073       C  0.83275957  0.99867235  0.14473702     0.00660
C1074       C  0.83263726  0.32901503  0.16989184     0.00660
O1075       O  0.92994465  0.04629111  0.87884020    -0.74330
O1076       O  0.72970527  0.05035137  0.92886862    -0.74360
O1077       O  0.73920428  0.04637287  0.87849616    -0.74420
O1078       O  0.94031218  0.05035752  0.92905244    -0.74470
O1079       O  0.93676451  0.27635270  0.92993663    -0.74400
O1080       O  0.73519126  0.27308943  0.87938941    -0.74380
O1081       O  0.72621024  0.27635615  0.92967699    -0.74350
O1082       O  0.92662864  0.27301536  0.87977267    -0.74420
Ni1083     Ni  0.00159855  0.05223222  0.90280353     1.25410
Ni1084     Ni  0.99773349  0.27080683  0.90379848     1.25360
C1085       C  0.89902940  0.32586732  0.87436989     0.87850
C1086       C  0.73892964  0.33063779  0.94009345     0.87780
C1087       C  0.76633976  0.32594898  0.87383734     0.87810
C1088       C  0.92750317  0.33066351  0.94030588     0.87980
C1089       C  0.83314600  0.32447123  0.86080907     0.00660
C1090       C  0.83465700  0.31886250  0.83571564     0.00660
C1091       C  0.99050788  0.17091256  0.67050974     0.00660
C1092       C  0.99625446  0.16874350  0.64541751     0.00660
O1093       O  0.71747707  0.26529710  0.62694808    -0.74330
O1094       O  0.71958316  0.06528249  0.57699606    -0.74360
O1095       O  0.71747097  0.07465241  0.62742578    -0.74420
O1096       O  0.71959713  0.27565340  0.57670607    -0.74470
O1097       O  0.94577206  0.27207139  0.57632045    -0.74400
O1098       O  0.94434438  0.07061196  0.62704749    -0.74380
O1099       O  0.94577204  0.06173373  0.57666677    -0.74350
O1100       O  0.94435516  0.26198578  0.62653885    -0.74420
Ni1101     Ni  0.72243823  0.00369792  0.60299914     1.25410
Ni1102     Ni  0.94119875  0.99980202  0.60255572     1.25360
C1103       C  0.99730364  0.23442370  0.63171824     0.87850
C1104       C  0.99961442  0.07436787  0.56598886     0.87780
C1105       C  0.99729540  0.10171888  0.63243337     0.87810
C1106       C  0.99963350  0.26279485  0.56568460     0.87980
O1107       O  0.72047977  0.10817056  0.52940868    -0.74330
O1108       O  0.72077551  0.23053106  0.47706634    -0.74360
O1109       O  0.72051925  0.23130221  0.52923986    -0.74420
O1110       O  0.72075932  0.10738030  0.47727755    -0.74470
O1111       O  0.94685897  0.10381597  0.47722696    -0.74400
O1112       O  0.94661541  0.22772173  0.52911690    -0.74380
O1113       O  0.94687418  0.22694736  0.47705277    -0.74350
O1114       O  0.94658206  0.10457848  0.52930856    -0.74420
Ni1115     Ni  0.72467381  0.16947822  0.50324589     1.25410
Ni1116     Ni  0.94272933  0.16561143  0.50317871     1.25360
C1117       C  0.00007320  0.09563264  0.54020312     0.87850
C1118       C  0.00053950  0.23969569  0.46624258     0.87780
C1119       C  0.00011291  0.24067644  0.53997411     0.87810
C1120       C  0.00053224  0.09464744  0.46642721     0.87980
C1121       C  0.00394580  0.34028308  0.75326453    -0.02390
O1122       O  0.94744758  0.26113276  0.37939372    -0.74330
O1123       O  0.94709310  0.06051019  0.42978463    -0.74360
O1124       O  0.94761851  0.07019731  0.37945869    -0.74420
O1125       O  0.94703875  0.27086246  0.42972858    -0.74470
O1126       O  0.72086150  0.27440995  0.42967897    -0.74400
O1127       O  0.72074447  0.07377981  0.37944157    -0.74380
O1128       O  0.72091489  0.06405592  0.42979394    -0.74350
O1129       O  0.72058782  0.26486743  0.37936092    -0.74420
Ni1130     Ni  0.94341060  0.33221866  0.40364541     1.25410
Ni1131     Ni  0.72465562  0.33608687  0.40362472     1.25360
C1132       C  0.00071284  0.23384827  0.37429144     0.87850
C1133       C  0.00063780  0.07314442  0.44064640     0.87780
C1134       C  0.00089806  0.10111534  0.37434030     0.87750
C1135       C  0.00059860  0.26157419  0.44052161     0.87980
C1136       C  0.00098925  0.16746313  0.36097342     0.00660
C1137       C  0.00231042  0.16746400  0.33578640     0.00660
C1138       C  0.99953060  0.33446694  0.25276744    -0.02390
C1139       C  0.94221478  0.23306983  0.30707359    -0.21210
C1140       C  0.99972741  0.22523714  0.31998394    -0.09250
C1141       C  0.72398190  0.24695722  0.30898492     0.29600
C1142       C  0.72456404  0.26945966  0.28455612    -0.21210
C1143       C  0.00028636  0.27769823  0.27121081    -0.09270
C1144       C  0.94234401  0.25596054  0.28270041     0.29610
F1145       F  0.88495324  0.26079997  0.27116611    -0.19790
H1146       H  0.89746309  0.21503242  0.31501409     0.17970
H1147       H  0.76987439  0.28663541  0.27691325     0.17980
F1148       F  0.78038426  0.24079145  0.32117802    -0.19780
C1149       C  0.94345196  0.06526084  0.28541724    -0.21210
C1150       C  0.00008359  0.05752030  0.27132415    -0.09250
C1151       C  0.72559317  0.07890820  0.28220912     0.29600
C1152       C  0.72744118  0.10147353  0.30663374    -0.21210
C1153       C  0.00411832  0.10938164  0.32015535    -0.09270
C1154       C  0.94579092  0.08747216  0.30987881     0.29610
F1155       F  0.89025981  0.09371145  0.32274979    -0.19790
H1156       H  0.89760618  0.04805200  0.27827258     0.17970
H1157       H  0.77277046  0.11936178  0.31412108     0.17980
F1158       F  0.78224147  0.07396112  0.27003094    -0.19780
C1159       C  0.93629476  0.24552838  0.69799709    -0.21210
C1160       C  0.99230131  0.23095478  0.68518147    -0.09250
C1161       C  0.71830613  0.25005635  0.69533846     0.29600
C1162       C  0.72181651  0.27387141  0.71957109    -0.21210
C1163       C  0.99921833  0.28671322  0.73332331    -0.09270
C1164       C  0.93927832  0.27123036  0.72193700     0.29610
F1165       F  0.88309825  0.28355320  0.73339386    -0.19790
H1166       H  0.89011836  0.23096544  0.69039666     0.17970
H1167       H  0.76846445  0.28699505  0.72691370     0.17980
F1168       F  0.77320782  0.23915362  0.68266317    -0.19780
C1169       C  0.71941589  0.10345814  0.69755609    -0.21210
C1170       C  0.99277108  0.11500657  0.68724451    -0.09250
C1171       C  0.93769682  0.10050955  0.70138699     0.29600
C1172       C  0.94290010  0.08108529  0.72612333    -0.21210
C1173       C  0.00284175  0.06650966  0.73641067    -0.09270
C1174       C  0.72487027  0.08268888  0.72209634     0.29610
F1175       F  0.78443252  0.07253595  0.73089195    -0.19790
H1176       H  0.76239290  0.11639047  0.68720035     0.17970
H1177       H  0.89936784  0.06990000  0.73631972     0.17980
F1178       F  0.87884806  0.11005453  0.69170581    -0.19780
C1179       C  0.91493216  0.38190655  0.81246344    -0.21210
C1180       C  0.89419251  0.32111723  0.82082450    -0.09250
C1181       C  0.90674940  0.93389662  0.80623669     0.29600
C1182       C  0.93208836  0.94148959  0.78242203    -0.21210
C1183       C  0.95008451  0.33620808  0.77298363    -0.09270
C1184       C  0.93941412  0.38999019  0.78847253     0.29610
F1185       F  0.62218314  0.45043896  0.78095112    -0.19790
H1186       H  0.90503793  0.42399908  0.82352394     0.17970
H1187       H  0.94162500  0.89857852  0.77188467     0.17980
F1188       F  0.88935801  0.87412891  0.81428227    -0.19780
C1189       C  0.73992147  0.27511282  0.78092261    -0.21210
C1190       C  0.72959924  0.33592368  0.77029312    -0.09250
C1191       C  0.74980402  0.05741008  0.78424194     0.29600
C1192       C  0.77065409  0.05136865  0.80873179    -0.21210
C1193       C  0.77853830  0.32411194  0.81929018    -0.09270
C1194       C  0.75965397  0.26944893  0.80559614     0.29610
F1195       F  0.76374084  0.21025139  0.81579684    -0.19790
H1196       H  0.72428965  0.23185901  0.77122997     0.17970
H1197       H  0.78748633  0.09395585  0.81866859     0.17980
F1198       F  0.74567719  0.11743297  0.77488394    -0.19780
C1199       C  0.89902929  0.05710638  0.19936716    -0.21210
C1200       C  0.89047719  0.00003716  0.18569183    -0.09250
C1201       C  0.91154215  0.27609927  0.19589975     0.29600
C1202       C  0.93358312  0.27483033  0.22038285    -0.21210
C1203       C  0.94254929  0.33201466  0.23448649    -0.09270
C1204       C  0.92135369  0.05633906  0.22378906     0.29610
F1205       F  0.92522421  0.11304991  0.23625309    -0.19790
H1206       H  0.88134703  0.10158550  0.19204420     0.17970
H1207       H  0.61708012  0.22981056  0.22744538     0.17980
F1208       F  0.90624601  0.22048194  0.18270807    -0.19780
C1209       C  0.74174813  0.94321605  0.22432426    -0.21210
C1210       C  0.72227918  0.33581663  0.23406309    -0.09250
C1211       C  0.73240135  0.39118847  0.21903910     0.29600
C1212       C  0.75492877  0.38596215  0.19469570    -0.21210
C1213       C  0.77441899  0.99359617  0.18548214    -0.09270
C1214       C  0.76395883  0.93834794  0.19997383     0.29610
F1215       F  0.78066965  0.88016663  0.19118556    -0.19790
H1216       H  0.73391478  0.89926490  0.23468955     0.17970
H1217       H  0.76403450  0.42917287  0.18390392     0.17980
F1218       F  0.04967082  0.45002007  0.22729220    -0.19780
O1219       O  0.92663266  0.61278173  0.12629641    -0.74330
O1220       O  0.72565896  0.61304201  0.07598923    -0.74360
O1221       O  0.73531483  0.61254136  0.12624336    -0.74420
O1222       O  0.93622541  0.61317836  0.07603147    -0.74470
O1223       O  0.93990417  0.38720300  0.07624097    -0.74400
O1224       O  0.73919751  0.38584825  0.12648826    -0.74380
O1225       O  0.72930056  0.38706960  0.07617248    -0.74350
O1226       O  0.93007846  0.38609940  0.12655334    -0.74420
Ni1227     Ni  0.99748693  0.60901480  0.10206711     1.25410
Ni1228     Ni  0.66810553  0.39047116  0.10234055     1.25360
C1229       C  0.89916305  0.33264817  0.13145774     0.87850
C1230       C  0.73838469  0.33344933  0.06524602     0.87780
C1231       C  0.76643623  0.66572447  0.13140977     0.87810
C1232       C  0.92696713  0.66693189  0.06533115     0.87980
O1233       O  0.76918843  0.61284540  0.02879013    -0.74330
O1234       O  0.89261123  0.61183098  0.97697837    -0.74360
O1235       O  0.89210674  0.61296880  0.02892978    -0.74420
O1236       O  0.76969182  0.61174579  0.97681910    -0.74470
O1237       O  0.77318310  0.38584328  0.97645719    -0.74400
O1238       O  0.89566477  0.38707203  0.02876699    -0.74380
O1239       O  0.89610766  0.38593315  0.97656039    -0.74350
O1240       O  0.77272590  0.38695093  0.02862134    -0.74420
Ni1241     Ni  0.83075271  0.60837056  0.00288693     1.25410
Ni1242     Ni  0.83455439  0.39053520  0.00259337     1.25360
C1243       C  0.75999717  0.33336882  0.03951231     0.87850
C1244       C  0.90546805  0.33186317  0.96598444     0.87780
C1245       C  0.90491812  0.66684664  0.03964668     0.87810
C1246       C  0.76055657  0.66511378  0.96582106     0.87980
C1247       C  0.83276669  0.33200545  0.14473718     0.00660
C1248       C  0.83263716  0.66234857  0.16989181     0.00660
O1249       O  0.92995667  0.37962631  0.87884069    -0.74330
O1250       O  0.72971755  0.38368542  0.92886877    -0.74360
O1251       O  0.73921617  0.37970802  0.87849627    -0.74420
O1252       O  0.94032445  0.38369157  0.92905292    -0.74470
O1253       O  0.93676489  0.60968601  0.92993665    -0.74400
O1254       O  0.73519158  0.60642308  0.87938943    -0.74380
O1255       O  0.72621061  0.60968948  0.92967697    -0.74350
O1256       O  0.92662889  0.60634900  0.87977268    -0.74420
Ni1257     Ni  0.00161067  0.38556683  0.90280386     1.25410
Ni1258     Ni  0.99773382  0.60414030  0.90379848     1.25360
C1259       C  0.89902970  0.65920102  0.87436992     0.87850
C1260       C  0.73893005  0.66397107  0.94009346     0.87780
C1261       C  0.76634005  0.65928270  0.87383743     0.87810
C1262       C  0.92750357  0.66399679  0.94030593     0.87980
C1263       C  0.83314619  0.65780514  0.86080914     0.00660
C1264       C  0.83465690  0.65219742  0.83571569     0.00660
C1265       C  0.99051532  0.50424508  0.67050966     0.00660
C1266       C  0.99626035  0.50207666  0.64541739     0.00660
O1267       O  0.71747951  0.59863253  0.62694815    -0.74330
O1268       O  0.71959207  0.39861445  0.57699634    -0.74360
O1269       O  0.71747656  0.40798465  0.62742614    -0.74420
O1270       O  0.71959921  0.60898901  0.57670615    -0.74470
O1271       O  0.94577415  0.60540335  0.57632047    -0.74400
O1272       O  0.94434998  0.40394619  0.62704695    -0.74380
O1273       O  0.94578096  0.39506766  0.57666644    -0.74350
O1274       O  0.94435760  0.59531726  0.62653889    -0.74420
Ni1275     Ni  0.72244423  0.33702981  0.60299958     1.25410
Ni1276     Ni  0.94120476  0.33313623  0.60255536     1.25360
C1277       C  0.99730712  0.56775708  0.63171825     0.87850
C1278       C  0.99962394  0.40770093  0.56598885     0.87780
C1279       C  0.99730116  0.43505219  0.63243320     0.87810
C1280       C  0.99963605  0.59612858  0.56568466     0.87980
O1281       O  0.72048947  0.44150619  0.52940882    -0.74330
O1282       O  0.72077951  0.56386662  0.47706634    -0.74360
O1283       O  0.72052337  0.56463774  0.52923997    -0.74420
O1284       O  0.72076880  0.44071600  0.47727746    -0.74470
O1285       O  0.94686845  0.43714740  0.47722717    -0.74400
O1286       O  0.94661954  0.56105298  0.52911697    -0.74380
O1287       O  0.94687818  0.56027856  0.47705286    -0.74350
O1288       O  0.94659176  0.43790992  0.52930853    -0.74420
Ni1289     Ni  0.72468071  0.50281399  0.50324593     1.25410
Ni1290     Ni  0.94273624  0.49894260  0.50317880     1.25360
C1291       C  0.00008318  0.42896606  0.54020316     0.87850
C1292       C  0.00054295  0.57302905  0.46624263     0.87780
C1293       C  0.00011651  0.57400990  0.53997419     0.87810
C1294       C  0.00054192  0.42798104  0.46642726     0.87980
C1295       C  0.00394389  0.67361477  0.75326445    -0.02390
O1296       O  0.94744962  0.59446433  0.37939376    -0.74330
O1297       O  0.94710158  0.39384467  0.42978498    -0.74360
O1298       O  0.94762358  0.40353161  0.37945914    -0.74420
O1299       O  0.94704065  0.60419414  0.42972866    -0.74470
O1300       O  0.72086340  0.60774498  0.42967892    -0.74400
O1301       O  0.72074954  0.40711259  0.37944114    -0.74380
O1302       O  0.72092336  0.39738883  0.42979364    -0.74350
O1303       O  0.72058986  0.59820265  0.37936087    -0.74420
Ni1304     Ni  0.94341035  0.66555007  0.40364539     1.25410
Ni1305     Ni  0.72465536  0.66942207  0.40362475     1.25360
C1306       C  0.00071580  0.56718170  0.37429142     0.87850
C1307       C  0.00064689  0.40647810  0.44064643     0.87780
C1308       C  0.00090318  0.43444887  0.37434031     0.87750
C1309       C  0.00060097  0.59490755  0.44052164     0.87980
C1310       C  0.00099427  0.50079663  0.36097341     0.00660
C1311       C  0.00231631  0.50079751  0.33578639     0.00660
C1312       C  0.99953027  0.66780022  0.25276742    -0.02390
C1313       C  0.94221825  0.56640240  0.30707396    -0.21210
C1314       C  0.99973167  0.55857047  0.31998390    -0.09250
C1315       C  0.72398535  0.58029126  0.30898447     0.29600
C1316       C  0.72456597  0.60279385  0.28455570    -0.21210
C1317       C  0.00028750  0.61103158  0.27121079    -0.09270
C1318       C  0.94234600  0.58929305  0.28270076     0.29610
F1319       F  0.88495470  0.59413150  0.27116678    -0.19790
H1320       H  0.89746716  0.54836443  0.31501479     0.17970
H1321       H  0.76987577  0.61997026  0.27691255     0.17980
F1322       F  0.78038842  0.57412625  0.32117714    -0.19780
C1323       C  0.94345811  0.39859417  0.28541735    -0.21210
C1324       C  0.00008966  0.39085335  0.27132424    -0.09250
C1325       C  0.72559933  0.41224115  0.28220917     0.29600
C1326       C  0.72744741  0.43480725  0.30663369    -0.21210
C1327       C  0.00412461  0.44271513  0.32015537    -0.09270
C1328       C  0.94579724  0.42080519  0.30987895     0.29610
F1329       F  0.89026622  0.42704401  0.32275004    -0.19790
H1330       H  0.89761225  0.38138549  0.27827271     0.17970
H1331       H  0.77277668  0.45269589  0.31412094     0.17980
F1332       F  0.78224759  0.40729352  0.27003102    -0.19780
C1333       C  0.93629882  0.57885969  0.69799635    -0.21210
C1334       C  0.99230674  0.56428698  0.68518149    -0.09250
C1335       C  0.71831040  0.58338864  0.69533940     0.29600
C1336       C  0.72181826  0.60720324  0.71957209    -0.21210
C1337       C  0.99921866  0.62004426  0.73332354    -0.09270
C1338       C  0.93927989  0.60456049  0.72193650     0.29610
F1339       F  0.88309874  0.61688137  0.73339288    -0.19790
H1340       H  0.89012334  0.56429653  0.69039517     0.17970
H1341       H  0.76846534  0.62032738  0.72691534     0.17980
F1342       F  0.77321336  0.57248678  0.68266483    -0.19780
C1343       C  0.71942636  0.43678928  0.69755452    -0.21210
C1344       C  0.99278035  0.44833880  0.68724423    -0.09250
C1345       C  0.93770779  0.43384217  0.70138778     0.29600
C1346       C  0.94291401  0.41441861  0.72612408    -0.21210
C1347       C  0.00285667  0.39984176  0.73641016    -0.09270
C1348       C  0.72488363  0.41601889  0.72209453     0.29610
F1349       F  0.78444677  0.40586293  0.73088863    -0.19790
H1350       H  0.76240219  0.44972089  0.68719787     0.17970
H1351       H  0.89938285  0.40323481  0.73632145     0.17980
F1352       F  0.87885787  0.44338738  0.69170772    -0.19780
C1353       C  0.91493083  0.71524057  0.81246279    -0.21210
C1354       C  0.89419217  0.65445160  0.82082449    -0.09250
C1355       C  0.90676749  0.26723336  0.80623844     0.29600
C1356       C  0.93210734  0.27482481  0.78242386    -0.21210
C1357       C  0.95008186  0.66954013  0.77298318    -0.09270
C1358       C  0.93941105  0.72332311  0.78847160     0.29610
F1359       F  0.62217836  0.78377176  0.78094948    -0.19790
H1360       H  0.90503689  0.75733359  0.82352305     0.17970
H1361       H  0.94164458  0.23191320  0.77188698     0.17980
F1362       F  0.88937671  0.20746611  0.81428474    -0.19780
C1363       C  0.73991924  0.60844595  0.78092331    -0.21210
C1364       C  0.72959666  0.66925648  0.77029349    -0.09250
C1365       C  0.74982316  0.39074484  0.78424000     0.29600
C1366       C  0.77067180  0.38470514  0.80873012    -0.21210
C1367       C  0.77853790  0.65744643  0.81929032    -0.09270
C1368       C  0.75965315  0.60278292  0.80559668     0.29610
F1369       F  0.76374104  0.54358567  0.81579757    -0.19790
H1370       H  0.72428710  0.56519157  0.77123107     0.17970
H1371       H  0.78750407  0.42729301  0.81866648     0.17980
F1372       F  0.74569813  0.45076706  0.77488110    -0.19780
C1373       C  0.89903551  0.39043934  0.19936725    -0.21210
C1374       C  0.89048356  0.33337001  0.18569198    -0.09250
C1375       C  0.91154157  0.60943221  0.19589981     0.29600
C1376       C  0.93358257  0.60816324  0.22038292    -0.21210
C1377       C  0.94254882  0.66534755  0.23448653    -0.09270
C1378       C  0.92135969  0.38967213  0.22378916     0.29610
F1379       F  0.92522998  0.44638294  0.23625322    -0.19790
H1380       H  0.88135323  0.43491838  0.19204423     0.17970
H1381       H  0.61707952  0.56314349  0.22744548     0.17980
F1382       F  0.90624520  0.55381490  0.18270814    -0.19780
C1383       C  0.74175409  0.27654869  0.22432442    -0.21210
C1384       C  0.72227882  0.66915038  0.23406303    -0.09250
C1385       C  0.73240105  0.72452228  0.21903910     0.29600
C1386       C  0.75492882  0.71929610  0.19469572    -0.21210
C1387       C  0.77442539  0.32692877  0.18548227    -0.09270
C1388       C  0.76396507  0.27168055  0.19997399     0.29610
F1389       F  0.78067586  0.21349918  0.19118576    -0.19790
H1390       H  0.73392075  0.23259759  0.23468975     0.17970
H1391       H  0.76403486  0.76250686  0.18390401     0.17980
F1392       F  0.04967047  0.78335379  0.22729227    -0.19780
O1393       O  0.92662514  0.94611502  0.12629617    -0.74330
O1394       O  0.72565135  0.94637544  0.07598913    -0.74360
O1395       O  0.73530736  0.94587464  0.12624322    -0.74420
O1396       O  0.93621779  0.94651182  0.07603117    -0.74470
O1397       O  0.93990422  0.72053644  0.07624097    -0.74400
O1398       O  0.73919761  0.71918183  0.12648822    -0.74380
O1399       O  0.72930061  0.72040306  0.07617244    -0.74350
O1400       O  0.93007856  0.71943295  0.12655333    -0.74420
Ni1401     Ni  0.99747936  0.94234816  0.10206691     1.25410
Ni1402     Ni  0.66810561  0.72380467  0.10234052     1.25360
C1403       C  0.89916315  0.66598173  0.13145775     0.87850
C1404       C  0.73838478  0.66678276  0.06524600     0.87780
C1405       C  0.76642878  0.99905774  0.13140968     0.87810
C1406       C  0.92695911  0.00026536  0.06533088     0.87980
O1407       O  0.76917868  0.94617886  0.02878994    -0.74330
O1408       O  0.89260087  0.94516431  0.97697821    -0.74360
O1409       O  0.89209700  0.94630228  0.02892962    -0.74420
O1410       O  0.76968145  0.94507910  0.97681897    -0.74470
O1411       O  0.77318352  0.71917653  0.97645719    -0.74400
O1412       O  0.89566504  0.72040537  0.02876700    -0.74380
O1413       O  0.89610808  0.71926639  0.97656043    -0.74350
O1414       O  0.77272618  0.72028428  0.02862132    -0.74420
Ni1415     Ni  0.83074266  0.94170397  0.00288677     1.25410
Ni1416     Ni  0.83455473  0.72386849  0.00259337     1.25360
C1417       C  0.75999739  0.66670219  0.03951230     0.87850
C1418       C  0.90546848  0.66519640  0.96598449     0.87780
C1419       C  0.90490885  0.00018013  0.03964646     0.87810
C1420       C  0.76054566  0.99844699  0.96582092     0.87980
C1421       C  0.83276674  0.66533904  0.14473716     0.00660
C1422       C  0.83263065  0.99568233  0.16989169     0.00660
O1423       O  0.92995700  0.71295995  0.87884076    -0.74330
O1424       O  0.72971792  0.71701876  0.92886882    -0.74360
O1425       O  0.73921641  0.71304168  0.87849636    -0.74420
O1426       O  0.94032482  0.71702489  0.92905300    -0.74470
O1427       O  0.93675219  0.94301865  0.92993642    -0.74400
O1428       O  0.73517923  0.93975428  0.87938962    -0.74380
O1429       O  0.72619792  0.94302211  0.92967713    -0.74350
O1430       O  0.92661679  0.93968019  0.87977247    -0.74420
Ni1431     Ni  0.00161099  0.71890031  0.90280394     1.25410
Ni1432     Ni  0.99772136  0.93747223  0.90379848     1.25360
C1433       C  0.89901750  0.99253198  0.87436946     0.87850
C1434       C  0.73891778  0.99730392  0.94009341     0.87780
C1435       C  0.76632784  0.99261368  0.87383752     0.87810
C1436       C  0.92749130  0.99732965  0.94030556     0.87980
C1437       C  0.83313345  0.99113538  0.86080897     0.00660
C1438       C  0.83464225  0.98552425  0.83571561     0.00660
C1439       C  0.99051045  0.83757946  0.67050962     0.00660
C1440       C  0.99625522  0.83541035  0.64541736     0.00660
O1441       O  0.71747416  0.93196524  0.62694760    -0.74330
O1442       O  0.71958933  0.73194993  0.57699638    -0.74360
O1443       O  0.71747429  0.74131999  0.62742619    -0.74420
O1444       O  0.71959079  0.94232156  0.57670570    -0.74470
O1445       O  0.94576570  0.93873752  0.57632056    -0.74400
O1446       O  0.94434774  0.73727776  0.62704721    -0.74380
O1447       O  0.94577821  0.72839948  0.57666668    -0.74350
O1448       O  0.94435222  0.92865126  0.62653907    -0.74420
Ni1449     Ni  0.72244409  0.67036544  0.60299964     1.25410
Ni1450     Ni  0.94120464  0.66646778  0.60255551     1.25360
C1451       C  0.99730172  0.90109047  0.63171805     0.87850
C1452       C  0.99962066  0.74103453  0.56598898     0.87780
C1453       C  0.99729799  0.76838565  0.63243335     0.87810
C1454       C  0.99962705  0.92946190  0.56568449     0.87980
O1455       O  0.72048464  0.77484125  0.52940885    -0.74330
O1456       O  0.72077027  0.89720106  0.47706638    -0.74360
O1457       O  0.72051405  0.89797258  0.52923975    -0.74420
O1458       O  0.72076411  0.77405064  0.47727757    -0.74470
O1459       O  0.94686376  0.77047845  0.47722716    -0.74400
O1460       O  0.94661020  0.89438433  0.52911695    -0.74380
O1461       O  0.94686893  0.89360950  0.47705264    -0.74350
O1462       O  0.94658693  0.77124139  0.52930864    -0.74420
Ni1463     Ni  0.72467360  0.83614886  0.50324592     1.25410
Ni1464     Ni  0.94272912  0.83227364  0.50317876     1.25360
C1465       C  0.00007881  0.76229945  0.54020325     0.87850
C1466       C  0.00053355  0.90636177  0.46624254     0.87780
C1467       C  0.00010700  0.90734308  0.53997405     0.87810
C1468       C  0.00053771  0.76131394  0.46642731     0.87980
C1469       C  0.00392994  0.00694999  0.75326456    -0.02390
O1470       O  0.94744461  0.92779832  0.37939331    -0.74330
O1471       O  0.94709898  0.72717620  0.42978489    -0.74360
O1472       O  0.94762124  0.73686306  0.37945904    -0.74420
O1473       O  0.94703245  0.93752798  0.42972831    -0.74470
O1474       O  0.72085520  0.94107713  0.42967919    -0.74400
O1475       O  0.72074720  0.74044767  0.37944123    -0.74380
O1476       O  0.72092076  0.73072370  0.42979375    -0.74350
O1477       O  0.72058485  0.93153498  0.37936125    -0.74420
Ni1478     Ni  0.94340485  0.99888416  0.40364498     1.25410
Ni1479     Ni  0.72464987  0.00275420  0.40362510     1.25360
C1480       C  0.00071068  0.90051488  0.37429138     0.87850
C1481       C  0.00064378  0.73981121  0.44064645     0.87780
C1482       C  0.00089996  0.76778210  0.37434028     0.87750
C1483       C  0.00059216  0.92824047  0.44052158     0.87980
C1484       C  0.00098910  0.83412984  0.36097337     0.00660
C1485       C  0.00231028  0.83413076  0.33578633     0.00660
C1486       C  0.99952480  0.00113395  0.25276733    -0.02390
C1487       C  0.94221205  0.89973528  0.30707370    -0.21210
C1488       C  0.99972531  0.89190369  0.31998380    -0.09250
C1489       C  0.72397903  0.91362498  0.30898454     0.29600
C1490       C  0.72455998  0.93612731  0.28455573    -0.21210
C1491       C  0.00028169  0.94436526  0.27121072    -0.09270
C1492       C  0.94234004  0.92262674  0.28270059     0.29610
F1493       F  0.88494887  0.92746565  0.27116655    -0.19790
H1494       H  0.89746091  0.88169688  0.31501436     0.17970
H1495       H  0.76986990  0.95330361  0.27691265     0.17980
F1496       F  0.78038194  0.90746052  0.32117739    -0.19780
C1497       C  0.94345572  0.73192646  0.28541702    -0.21210
C1498       C  0.00008799  0.72418650  0.27132424    -0.09250
C1499       C  0.72559691  0.74557519  0.28220947     0.29600
C1500       C  0.72744368  0.76814136  0.30663401    -0.21210
C1501       C  0.00412015  0.77604848  0.32015533    -0.09270
C1502       C  0.94579350  0.75413772  0.30987858     0.29610
F1503       F  0.89026183  0.76037582  0.32274932    -0.19790
H1504       H  0.89761035  0.71471708  0.27827215     0.17970
H1505       H  0.77277240  0.78603064  0.31412153     0.17980
F1506       F  0.78224564  0.74062850  0.27003157    -0.19780
C1507       C  0.93629010  0.91219387  0.69799528    -0.21210
C1508       C  0.99229926  0.89762190  0.68518112    -0.09250
C1509       C  0.71830178  0.91672613  0.69533931     0.29600
C1510       C  0.72180756  0.94054174  0.71957189    -0.21210
C1511       C  0.99920677  0.95338124  0.73332285    -0.09270
C1512       C  0.93926902  0.93789672  0.72193512     0.29610
F1513       F  0.88308686  0.95021813  0.73339061    -0.19790
H1514       H  0.89011547  0.89762912  0.69039374     0.17970
H1515       H  0.76845382  0.95366760  0.72691550     0.17980
F1516       F  0.77320575  0.90582629  0.68266513    -0.19780
C1517       C  0.71942342  0.77012543  0.69755476    -0.21210
C1518       C  0.99277716  0.78167389  0.68724444    -0.09250
C1519       C  0.93770470  0.76717504  0.70138770     0.29600
C1520       C  0.94291099  0.74774888  0.72612365    -0.21210
C1521       C  0.00285392  0.73317282  0.73640975    -0.09270
C1522       C  0.72488078  0.74935166  0.72209434     0.29610
F1523       F  0.78444394  0.73919524  0.73088832    -0.19790
H1524       H  0.76239912  0.78305927  0.68719840     0.17970
H1525       H  0.89937981  0.73656317  0.73632072     0.17980
F1526       F  0.87885463  0.77671976  0.69170768    -0.19780
C1527       C  0.91491484  0.04856942  0.81246290    -0.21210
C1528       C  0.89417619  0.98777952  0.82082363    -0.09250
C1529       C  0.90676691  0.60056699  0.80623880     0.29600
C1530       C  0.93210523  0.60815728  0.78242391    -0.21210
C1531       C  0.95006615  0.00287343  0.77298252    -0.09270
C1532       C  0.93939495  0.05665460  0.78847182     0.29610
F1533       F  0.62216239  0.11710397  0.78095072    -0.19790
H1534       H  0.90502087  0.09066133  0.82352383     0.17970
H1535       H  0.94164218  0.56524520  0.77188727     0.17980
F1536       F  0.88937739  0.54080007  0.81428583    -0.19780
C1537       C  0.73990269  0.94177811  0.78092337    -0.21210
C1538       C  0.72958111  0.00258979  0.77029435    -0.09250
C1539       C  0.74982035  0.72407822  0.78424006     0.29600
C1540       C  0.77067068  0.71803929  0.80873002    -0.21210
C1541       C  0.77852197  0.99077471  0.81929098    -0.09270
C1542       C  0.75963619  0.93611269  0.80559670     0.29610
F1543       F  0.76372236  0.87691459  0.81579695    -0.19790
H1544       H  0.72427031  0.89852463  0.77123054     0.17970
H1545       H  0.78750337  0.76062748  0.81866607     0.17980
F1546       F  0.74569404  0.78410013  0.77488094    -0.19780
C1547       C  0.89903560  0.72377238  0.19936720    -0.21210
C1548       C  0.89048340  0.66670307  0.18569198    -0.09250
C1549       C  0.91153594  0.94276639  0.19589957     0.29600
C1550       C  0.93357713  0.94149733  0.22038268    -0.21210
C1551       C  0.94254331  0.99868153  0.23448639    -0.09270
C1552       C  0.92135939  0.72300508  0.22378914     0.29610
F1553       F  0.92522971  0.77971600  0.23625312    -0.19790
H1554       H  0.88135369  0.76825152  0.19204413     0.17970
H1555       H  0.61707424  0.89647757  0.22744516     0.17980
F1556       F  0.90623990  0.88714916  0.18270783    -0.19780
C1557       C  0.74175352  0.60988245  0.22432424    -0.21210
C1558       C  0.72227325  0.00248396  0.23406296    -0.09250
C1559       C  0.73239529  0.05785586  0.21903901     0.29600
C1560       C  0.75492249  0.05262956  0.19469558    -0.21210
C1561       C  0.77442519  0.66026269  0.18548221    -0.09270
C1562       C  0.76396442  0.60501440  0.19997381     0.29610
F1563       F  0.78067476  0.54683299  0.19118547    -0.19790
H1564       H  0.73391991  0.56593120  0.23468944     0.17970
H1565       H  0.76402807  0.09584027  0.18390378     0.17980
F1566       F  0.04966484  0.11668744  0.22729216    -0.19780
loop_ 
_geom_bond_atom_site_label_1 
_geom_bond_atom_site_label_2 
_geom_bond_distance 
_geom_bond_site_symmetry_2 
_ccdc_geom_bond_type 
O1           Ni9   1.969       .  S
O1          C185   1.293       .  A
O2        Ni1053   1.895   1_455  S
O2          C186   1.279       .  A
O3        Ni1053   1.971   1_455  S
O3           C13   1.293       .  A
O4           Ni9   1.898       .  S
O4           C14   1.279       .  A
O5         Ni532   1.899       .  S
O5          C362   1.279       .  A
O6          Ni10   1.974       .  S
O6          C361   1.294   1_545  A
O7          Ni10   1.897       .  S
O7           C12   1.279       .  A
O8         Ni532   1.973       .  S
O8           C11   1.293   1_545  A
Ni9         O524   1.895       .  S
Ni9         O525   1.971       .  S
Ni9        Ni706   2.387       .  S
Ni10       O1049   1.899   1_455  S
Ni10       O1052   1.973   1_455  S
Ni10      Ni1401   2.387   1_445  S
C11         O349   1.293       .  A
C11          C29   1.555       .  S
C12         O350   1.279   1_545  A
C12          C25   1.451       .  S
C13         O180   1.294       .  A
C13         C203   1.558       .  S
C14         O179   1.279       .  A
C14          C27   1.452       .  S
O15         Ni23   1.894       .  S
O15         C199   1.278       .  A
O16         Ni23   1.894   1_556  S
O16         C200   1.278       .  A
O17         Ni23   1.895       .  S
O17          C27   1.279       .  A
O18         Ni23   1.895   1_556  S
O18          C28   1.279       .  A
O19         Ni24   1.899   1_556  S
O19         C376   1.279   1_545  A
O20         Ni24   1.900       .  S
O20         C375   1.280       .  A
O21         Ni24   1.899   1_556  S
O21          C26   1.280   1_545  A
O22         Ni24   1.898       .  S
O22          C25   1.279       .  A
Ni23       Ni198   2.402       .  S
Ni24       Ni371   2.402   1_545  S
C25         O363   1.278   1_545  A
C26         O364   1.278       .  A
C26         C392   1.451       .  S
C27         O194   1.280       .  A
C28         O193   1.279       .  A
C28          C42   1.452       .  S
C29         C361   1.558       .  S
C29         C378   1.350       .  D
C30         C330   1.475       .  S
C30         C343   1.472       .  S
C30         C203   1.350       .  D
O31         Ni39   1.972       .  S
O31         C389   1.294   1_545  A
O32       Ni1083   1.899       .  S
O32         C390   1.279   1_545  A
O33       Ni1083   1.976       .  S
O33         C391   1.294   1_545  A
O34         Ni39   1.899       .  S
O34         C392   1.279   1_545  A
O35         Ni40   1.896       .  S
O35          C44   1.279       .  A
O36       Ni1084   1.970   1_455  S
O36          C43   1.293       .  A
O37       Ni1084   1.896   1_455  S
O37          C42   1.279       .  A
O38         Ni40   1.967       .  S
O38          C41   1.292       .  A
Ni39        O554   1.899       .  S
Ni39        O555   1.976       .  S
Ni39       Ni388   2.387   1_545  S
Ni40        O558   1.970       .  S
Ni40        O559   1.896       .  S
Ni40       Ni213   2.387       .  S
C41         O205   1.294       .  A
C41          C45   1.554       .  S
C42         O206   1.279       .  A
C43         O207   1.294       .  A
C43          C45   1.558       .  S
C44         O208   1.279       .  A
C44         C200   1.451       .  S
C45          C46   1.351       .  D
C46         C136   1.474       .  S
C46         C149   1.473       .  S
C47         C116   1.474       .  S
C47         C126   1.473       .  S
C47          C48   1.351       .  D
C48          C61   1.558       .  S
C48          C59   1.553       .  S
O49        Ni231   1.971       .  S
O49        C1103   1.293   1_455  A
O50         Ni57   1.898       .  S
O50        C1104   1.279   1_455  A
O51         Ni57   1.976       .  S
O51        C1105   1.294   1_455  A
O52        Ni231   1.900       .  S
O52        C1106   1.279   1_455  A
O53        Ni232   1.898       .  S
O53          C62   1.279       .  A
O54         Ni58   1.971   1_545  S
O54          C61   1.293       .  A
O55         Ni58   1.896   1_545  S
O55          C60   1.279       .  A
O56        Ni232   1.966       .  S
O56          C59   1.292       .  A
Ni57        O397   1.971   1_545  S
Ni57        O400   1.900   1_545  S
Ni57      Ni1102   2.387   1_445  S
Ni58        O401   1.898       .  S
Ni58        O404   1.966       .  S
Ni58       Ni579   2.387   1_565  S
C59         O571   1.293       .  A
C60         O572   1.279       .  A
C60          C73   1.452       .  S
C61         O573   1.294       .  A
C62         O574   1.279       .  A
C62          C75   1.452       .  S
O63         Ni71   1.898       .  S
O63        C1117   1.279       .  A
O64         Ni71   1.899       .  S
O64        C1118   1.280       .  A
O65         Ni71   1.898       .  S
O65        C1119   1.279       .  A
O66         Ni71   1.897       .  S
O66        C1120   1.279       .  A
O67         Ni72   1.896       .  S
O67          C76   1.279       .  A
O68         Ni72   1.896       .  S
O68          C75   1.279       .  A
O69         Ni72   1.897       .  S
O69          C74   1.279       .  A
O70         Ni72   1.897       .  S
O70          C73   1.279       .  A
Ni71      Ni1116   2.402   1_455  S
Ni72       Ni593   2.402       .  S
C73         O585   1.279       .  A
C74         O586   1.280       .  A
C74          C91   1.453       .  S
C75         O587   1.279       .  A
C76         O588   1.279       .  A
C76          C89   1.452       .  S
C77         C119   1.543       .  S
C77         C139   1.541       .  S
C77         C303   1.536       .  S
C77         C668   1.538       .  S
O78         Ni86   1.971       .  S
O78          C88   1.293       .  A
O79        Ni434   1.897   1_545  S
O79          C89   1.279       .  A
O80        Ni434   1.973   1_545  S
O80          C90   1.294       .  A
O81         Ni86   1.899       .  S
O81          C91   1.279       .  A
O82         Ni87   1.899       .  S
O82        C1135   1.279       .  A
O83        Ni435   1.972       .  S
O83        C1134   1.293       .  A
O84        Ni435   1.897       .  S
O84        C1133   1.279       .  A
O85         Ni87   1.969       .  S
O85        C1132   1.293       .  A
Ni86        O253   1.897       .  S
Ni86        O254   1.973       .  S
Ni86       Ni609   2.387       .  S
Ni87        O257   1.972       .  S
Ni87        O258   1.897       .  S
Ni87      Ni1130   2.387   1_455  S
C88         O607   1.293       .  A
C88          C92   1.554       .  S
C89         O606   1.279       .  A
C90         O605   1.293       .  A
C90          C92   1.557       .  S
C91         O604   1.279       .  A
C92          C93   1.351       .  D
C93          C96   1.475       .  S
C93         C109   1.471       .  S
C94          C99   1.543       .  S
C94         C159   1.541       .  S
C94         C280   1.536       .  S
C94         C688   1.539       .  S
C95          C96   1.400       .  A
C95         C100   1.392       .  A
C95         H102   1.081       .  S
C96         C619   1.398       .  A
C97          C98   1.392       .  A
C97        C1140   1.398   1_455  A
C97         F104   1.356       .  S
C98        C1143   1.415       .  A
C98         H103   1.079       .  S
C99         C100   1.416       .  A
C99         C620   1.415       .  A
C100        F101   1.355       .  S
C105        C106   1.414       .  A
C105        C110   1.390       .  A
C105        H112   1.079       .  S
C106        C442   1.536       .  S
C106        C629   1.417       .  A
C107        C108   1.390       .  A
C107       C1150   1.417       .  A
C107        F114   1.355       .  S
C108       C1153   1.399       .  A
C108        H113   1.081       .  S
C109        C110   1.397       .  A
C109        C630   1.399       .  A
C110        F111   1.357       .  S
C115        C116   1.396       .  A
C115        C120   1.390       .  A
C115        H122   1.079       .  S
C116        C639   1.397       .  A
C117        C118   1.391       .  A
C117       C1160   1.397   1_455  A
C117        F124   1.356       .  S
C118       C1163   1.411   1_455  A
C118        H123   1.076       .  S
C119        C120   1.418       .  A
C119        C640   1.411       .  A
C120        F121   1.354       .  S
C125        C130   1.392       .  A
C125       C1170   1.397   1_455  A
C125        H132   1.080       .  S
C126        C127   1.399       .  A
C126        C647   1.397       .  A
C127        C128   1.393       .  A
C127        F134   1.354       .  S
C128        C129   1.410       .  A
C128        H133   1.077       .  S
C129        C425   1.536       .  S
C129        C652   1.416       .  A
C130       C1173   1.416       .  A
C130        F131   1.352       .  S
C135        C136   1.397       .  A
C135        C140   1.391       .  A
C135        H142   1.082       .  S
C136        C311   1.397       .  A
C137        C138   1.388       .  A
C137        C484   1.397       .  A
C137        F144   1.355       .  S
C138        C487   1.413   1_565  A
C138        H143   1.080       .  S
C139        C140   1.415       .  A
C139        C312   1.413       .  A
C140        F663   1.353       .  S
F141       C1184   1.353       .  S
C145        C146   1.412       .  A
C145        C150   1.392       .  A
C145        H152   1.079       .  S
C146       C1121   1.538       .  S
C146        C321   1.415       .  A
C147        C148   1.391       .  A
C147        C494   1.415       .  A
C147        F154   1.353       .  S
C148        C497   1.398   1_545  A
C148        H153   1.081       .  S
C149        C150   1.398       .  A
C149        C322   1.398       .  A
C150        F151   1.354       .  S
C155        C156   1.400       .  A
C155        C160   1.391       .  A
C155        H162   1.083       .  S
C156        C378   1.475   1_545  S
C156        C505   1.397   1_545  A
C157        C158   1.392       .  A
C157        C330   1.397       .  A
C157        F164   1.356       .  S
C158        C159   1.415       .  A
C158        H685   1.081       .  S
C159        C334   1.416       .  A
C160        C507   1.416   1_545  A
C160        F161   1.355       .  S
H163       C1202   1.081       .  S
C165        C170   1.389       .  A
C165        C514   1.410   1_565  A
C165        H172   1.079       .  S
C166       C1138   1.539   1_455  S
C166        C167   1.417       .  A
C166        C339   1.410       .  A
C167        C168   1.392       .  A
C167       F1218   1.353       .  S
C168        C343   1.396       .  A
C168        H173   1.081       .  S
C169        C378   1.472       .  S
C169        C170   1.400       .  A
C169        C516   1.396   1_565  A
C170        F171   1.355       .  S
F174        C689   1.353       .  S
O175       Ni183   1.969       .  S
O175        C359   1.293       .  A
O176      Ni1227   1.895   1_455  S
O176        C360   1.279       .  A
O177      Ni1227   1.971   1_455  S
O177        C187   1.293       .  A
O178       Ni183   1.898       .  S
O178        C188   1.279       .  A
O179       Ni706   1.899       .  S
O180       Ni184   1.974       .  S
O181       Ni184   1.897       .  S
O181        C186   1.279       .  A
O182       Ni706   1.973       .  S
O182        C185   1.293       .  A
Ni183       O698   1.895       .  S
Ni183       O699   1.971       .  S
Ni183      Ni880   2.387       .  S
Ni184      O1223   1.899   1_455  S
Ni184      O1226   1.973   1_455  S
Ni184     Ni1053   2.387   1_455  S
C185        C203   1.555       .  S
C186        C199   1.451       .  S
C187        O354   1.294       .  A
C187        C377   1.558       .  S
C188        O353   1.279       .  A
C188        C201   1.452       .  S
O189       Ni197   1.894       .  S
O189        C373   1.278       .  A
O190       Ni197   1.894   1_556  S
O190        C374   1.278       .  A
O191       Ni197   1.895       .  S
O191        C201   1.279       .  A
O192       Ni197   1.895   1_556  S
O192        C202   1.279       .  A
O193       Ni198   1.899   1_556  S
O194       Ni198   1.900       .  S
O195       Ni198   1.899   1_556  S
O195        C200   1.280       .  A
O196       Ni198   1.898       .  S
O196        C199   1.279       .  A
Ni197      Ni372   2.402       .  S
C201        O368   1.280       .  A
C202        O367   1.279       .  A
C202        C216   1.452       .  S
C204        C504   1.475       .  S
C204        C517   1.472       .  S
C204        C377   1.350       .  D
O205       Ni213   1.972       .  S
O206      Ni1257   1.899       .  S
O207      Ni1257   1.976       .  S
O208       Ni213   1.899       .  S
O209       Ni214   1.896       .  S
O209        C218   1.279       .  A
O210      Ni1258   1.970   1_455  S
O210        C217   1.293       .  A
O211      Ni1258   1.896   1_455  S
O211        C216   1.279       .  A
O212       Ni214   1.967       .  S
O212        C215   1.292       .  A
Ni213       O728   1.899       .  S
Ni213       O729   1.976       .  S
Ni214       O732   1.970       .  S
Ni214       O733   1.896       .  S
Ni214      Ni387   2.387       .  S
C215        O379   1.294       .  A
C215        C219   1.554       .  S
C216        O380   1.279       .  A
C217        O381   1.294       .  A
C217        C219   1.558       .  S
C218        O382   1.279       .  A
C218        C374   1.451       .  S
C219        C220   1.351       .  D
C220        C310   1.474       .  S
C220        C323   1.473       .  S
C221        C290   1.474       .  S
C221        C300   1.473       .  S
C221        C222   1.351       .  D
C222        C235   1.558       .  S
C222        C233   1.553       .  S
O223       Ni405   1.971       .  S
O223       C1277   1.293   1_455  A
O224       Ni231   1.898       .  S
O224       C1278   1.279   1_455  A
O225       Ni231   1.976       .  S
O225       C1279   1.294   1_455  A
O226       Ni405   1.900       .  S
O226       C1280   1.279   1_455  A
O227       Ni406   1.898       .  S
O227        C236   1.279       .  A
O228       Ni232   1.971       .  S
O228        C235   1.293       .  A
O229       Ni232   1.896       .  S
O229        C234   1.279       .  A
O230       Ni406   1.966       .  S
O230        C233   1.292       .  A
Ni231     Ni1276   2.387   1_455  S
Ni232      Ni753   2.387       .  S
C233        O745   1.293       .  A
C234        O746   1.279       .  A
C234        C247   1.452       .  S
C235        O747   1.294       .  A
C236        O748   1.279       .  A
C236        C249   1.452       .  S
O237       Ni245   1.898       .  S
O237       C1291   1.279       .  A
O238       Ni245   1.899       .  S
O238       C1292   1.280       .  A
O239       Ni245   1.898       .  S
O239       C1293   1.279       .  A
O240       Ni245   1.897       .  S
O240       C1294   1.279       .  A
O241       Ni246   1.896       .  S
O241        C250   1.279       .  A
O242       Ni246   1.896       .  S
O242        C249   1.279       .  A
O243       Ni246   1.897       .  S
O243        C248   1.279       .  A
O244       Ni246   1.897       .  S
O244        C247   1.279       .  A
Ni245     Ni1290   2.402   1_455  S
Ni246      Ni767   2.402       .  S
C247        O759   1.279       .  A
C248        O760   1.280       .  A
C248        C265   1.453       .  S
C249        O761   1.279       .  A
C250        O762   1.279       .  A
C250        C263   1.452       .  S
C251        C293   1.543       .  S
C251        C477   1.536       .  S
C251        C313   1.541       .  S
C251        C842   1.538       .  S
O252       Ni260   1.971       .  S
O252        C262   1.293       .  A
O253        C263   1.279       .  A
O254        C264   1.294       .  A
O255       Ni260   1.899       .  S
O255        C265   1.279       .  A
O256       Ni261   1.899       .  S
O256       C1309   1.279       .  A
O257       C1308   1.293       .  A
O258       C1307   1.279       .  A
O259       Ni261   1.969       .  S
O259       C1306   1.293       .  A
Ni260       O427   1.897       .  S
Ni260       O428   1.973       .  S
Ni260      Ni783   2.387       .  S
Ni261       O431   1.972       .  S
Ni261       O432   1.897       .  S
Ni261     Ni1304   2.387   1_455  S
C262        O781   1.293       .  A
C262        C266   1.554       .  S
C263        O780   1.279       .  A
C264        O779   1.293       .  A
C264        C266   1.557       .  S
C265        O778   1.279       .  A
C266        C267   1.351       .  D
C267        C270   1.475       .  S
C267        C283   1.471       .  S
C268        C273   1.543       .  S
C268        C454   1.536       .  S
C268        C333   1.541       .  S
C268        C862   1.539       .  S
C269        C270   1.400       .  A
C269        C274   1.392       .  A
C269        H276   1.081       .  S
C270        C793   1.398       .  A
C271       C1314   1.398   1_455  A
C271        C272   1.392       .  A
C271        F278   1.356       .  S
C272       C1317   1.415       .  A
C272        H277   1.079       .  S
C273        C794   1.415       .  A
C273        C274   1.416       .  A
C274        F275   1.355       .  S
C279        C280   1.414       .  A
C279        C284   1.390       .  A
C279        H286   1.079       .  S
C280        C803   1.417       .  A
C281       C1324   1.417       .  A
C281        C282   1.390       .  A
C281        F288   1.355       .  S
C282       C1327   1.399       .  A
C282        H287   1.081       .  S
C283        C804   1.399       .  A
C283        C284   1.397       .  A
C284        F285   1.357       .  S
C289        C290   1.396       .  A
C289        C294   1.390       .  A
C289        H296   1.079       .  S
C290        C813   1.397       .  A
C291       C1334   1.397   1_455  A
C291        C292   1.391       .  A
C291        F298   1.356       .  S
C292       C1337   1.411   1_455  A
C292        H297   1.076       .  S
C293        C814   1.411       .  A
C293        C294   1.418       .  A
C294        F295   1.354       .  S
C299       C1344   1.397   1_455  A
C299        C304   1.392       .  A
C299        H306   1.080       .  S
C300        C821   1.397       .  A
C300        C301   1.399       .  A
C301        C302   1.393       .  A
C301        F308   1.354       .  S
C302        C303   1.410       .  A
C302        H307   1.077       .  S
C303        C826   1.416       .  A
C304       C1347   1.416       .  A
C304        F305   1.352       .  S
C309        C310   1.397       .  A
C309        C314   1.391       .  A
C309        H316   1.082       .  S
C310        C485   1.397       .  A
C311        C312   1.388       .  A
C311        F318   1.355       .  S
C312        H317   1.080       .  S
C313        C486   1.413       .  A
C313        C314   1.415       .  A
C314        F837   1.353       .  S
F315       C1358   1.353       .  S
C319        C320   1.412       .  A
C319        C324   1.392       .  A
C319        H326   1.079       .  S
C320       C1295   1.538       .  S
C320        C495   1.415       .  A
C321        C322   1.391       .  A
C321        F328   1.353       .  S
C322        H327   1.081       .  S
C323        C496   1.398       .  A
C323        C324   1.398       .  A
C324        F325   1.354       .  S
C329        C330   1.400       .  A
C329        C334   1.391       .  A
C329        H336   1.083       .  S
C331        C504   1.397       .  A
C331        C332   1.392       .  A
C331        F338   1.356       .  S
C332        C333   1.415       .  A
C332        H859   1.081       .  S
C333        C508   1.416       .  A
C334        F335   1.355       .  S
H337       C1376   1.081       .  S
C339        C344   1.389       .  A
C339        H346   1.079       .  S
C340       C1312   1.539   1_455  S
C340        C513   1.410       .  A
C340        C341   1.417       .  A
C341        C342   1.392       .  A
C341       F1392   1.353       .  S
C342        C517   1.396       .  A
C342        H347   1.081       .  S
C343        C344   1.400       .  A
C344        F345   1.355       .  S
F348        C863   1.353       .  S
O349       Ni357   1.969       .  S
O350      Ni1401   1.895   1_455  S
O351      Ni1401   1.971   1_455  S
O351        C361   1.293       .  A
O352       Ni357   1.898       .  S
O352        C362   1.279   1_565  A
O353       Ni880   1.899       .  S
O354       Ni358   1.974       .  S
O355       Ni358   1.897       .  S
O355        C360   1.279       .  A
O356       Ni880   1.973       .  S
O356        C359   1.293       .  A
Ni357       O872   1.895       .  S
Ni357       O873   1.971       .  S
Ni357      Ni532   2.387   1_565  S
Ni358      O1397   1.899   1_455  S
Ni358      O1400   1.973   1_455  S
Ni358     Ni1227   2.387   1_455  S
C359        C377   1.555       .  S
C360        C373   1.451       .  S
C362        C375   1.452       .  S
O363       Ni371   1.894       .  S
O364       Ni371   1.894   1_556  S
O365       Ni371   1.895       .  S
O365        C375   1.279   1_565  A
O366       Ni371   1.895   1_556  S
O366        C376   1.279       .  A
O367       Ni372   1.899   1_556  S
O368       Ni372   1.900       .  S
O369       Ni372   1.899   1_556  S
O369        C374   1.280       .  A
O370       Ni372   1.898       .  S
O370        C373   1.279       .  A
C376        C390   1.452       .  S
O379       Ni387   1.972       .  S
O380      Ni1431   1.899       .  S
O381      Ni1431   1.976       .  S
O382       Ni387   1.899       .  S
O383       Ni388   1.896       .  S
O383        C392   1.279       .  A
O384      Ni1432   1.970   1_455  S
O384        C391   1.293       .  A
O385      Ni1432   1.896   1_455  S
O385        C390   1.279       .  A
O386       Ni388   1.967       .  S
O386        C389   1.292       .  A
Ni387       O902   1.899       .  S
Ni387       O903   1.976       .  S
Ni388       O906   1.970       .  S
Ni388       O907   1.896       .  S
C389        C393   1.554       .  S
C391        C393   1.558       .  S
C393        C394   1.351       .  D
C394        C484   1.474       .  S
C394        C497   1.473       .  S
C395        C464   1.474       .  S
C395        C474   1.473       .  S
C395        C396   1.351       .  D
C396        C409   1.558       .  S
C396        C407   1.553       .  S
O397       C1451   1.293   1_455  A
O398       Ni405   1.898       .  S
O398       C1452   1.279   1_455  A
O399       Ni405   1.976       .  S
O399       C1453   1.294   1_455  A
O400       C1454   1.279   1_455  A
O401        C410   1.279       .  A
O402       Ni406   1.971       .  S
O402        C409   1.293       .  A
O403       Ni406   1.896       .  S
O403        C408   1.279       .  A
O404        C407   1.292       .  A
Ni405     Ni1450   2.387   1_455  S
Ni406      Ni927   2.387       .  S
C407        O919   1.293       .  A
C408        O920   1.279       .  A
C408        C421   1.452       .  S
C409        O921   1.294       .  A
C410        O922   1.279       .  A
C410        C423   1.452       .  S
O411       Ni419   1.898       .  S
O411       C1465   1.279       .  A
O412       Ni419   1.899       .  S
O412       C1466   1.280       .  A
O413       Ni419   1.898       .  S
O413       C1467   1.279       .  A
O414       Ni419   1.897       .  S
O414       C1468   1.279       .  A
O415       Ni420   1.896       .  S
O415        C424   1.279       .  A
O416       Ni420   1.896       .  S
O416        C423   1.279       .  A
O417       Ni420   1.897       .  S
O417        C422   1.279       .  A
O418       Ni420   1.897       .  S
O418        C421   1.279       .  A
Ni419     Ni1464   2.402   1_455  S
Ni420      Ni941   2.402       .  S
C421        O933   1.279       .  A
C422        O934   1.280       .  A
C422        C439   1.453       .  S
C423        O935   1.279       .  A
C424        O936   1.279       .  A
C424        C437   1.452       .  S
C425        C467   1.543   1_545  S
C425        C487   1.541       .  S
C425       C1016   1.538       .  S
O426       Ni434   1.971       .  S
O426        C436   1.293       .  A
O427        C437   1.279       .  A
O428        C438   1.294       .  A
O429       Ni434   1.899       .  S
O429        C439   1.279       .  A
O430       Ni435   1.899   1_565  S
O430       C1483   1.279       .  A
O431       C1482   1.293       .  A
O432       C1481   1.279       .  A
O433       Ni435   1.969   1_565  S
O433       C1480   1.293       .  A
Ni434      Ni957   2.387   1_565  S
Ni435     Ni1478   2.387   1_445  S
C436        O955   1.293       .  A
C436        C440   1.554       .  S
C437        O954   1.279       .  A
C438        O953   1.293       .  A
C438        C440   1.557       .  S
C439        O952   1.279       .  A
C440        C441   1.351       .  D
C441        C444   1.475       .  S
C441        C457   1.471       .  S
C442        C447   1.543   1_545  S
C442        C507   1.541   1_545  S
C442       C1036   1.539       .  S
C443        C444   1.400       .  A
C443        C448   1.392       .  A
C443        H450   1.081       .  S
C444        C967   1.398       .  A
C445       C1488   1.398   1_455  A
C445        C446   1.392       .  A
C445        F452   1.356       .  S
C446       C1491   1.415       .  A
C446        H451   1.079       .  S
C447        C968   1.415       .  A
C447        C448   1.416       .  A
C448        F449   1.355       .  S
C453        C454   1.414       .  A
C453        C458   1.390       .  A
C453        H460   1.079       .  S
C454        C977   1.417       .  A
C455       C1498   1.417       .  A
C455        C456   1.390       .  A
C455        F462   1.355       .  S
C456       C1501   1.399       .  A
C456        H461   1.081       .  S
C457        C978   1.399       .  A
C457        C458   1.397       .  A
C458        F459   1.357       .  S
C463        C464   1.396       .  A
C463        C468   1.390       .  A
C463        H470   1.079       .  S
C464        C987   1.397       .  A
C465       C1508   1.397   1_455  A
C465        C466   1.391       .  A
C465        F472   1.356       .  S
C466       C1511   1.411   1_455  A
C466        H471   1.076       .  S
C467        C988   1.411       .  A
C467        C468   1.418       .  A
C468        F469   1.354       .  S
C473       C1518   1.397   1_455  A
C473        C478   1.392       .  A
C473        H480   1.080       .  S
C474        C995   1.397       .  A
C474        C475   1.399       .  A
C475        C476   1.393       .  A
C475        F482   1.354       .  S
C476        C477   1.410       .  A
C476        H481   1.077       .  S
C477       C1000   1.416       .  A
C478       C1521   1.416       .  A
C478        F479   1.352       .  S
C483        C484   1.397   1_545  A
C483        C488   1.391       .  A
C483        H490   1.082       .  S
C485        C486   1.388       .  A
C485        F492   1.355       .  S
C486        H491   1.080       .  S
C487        C488   1.415       .  A
C488       F1011   1.353       .  S
F489       C1532   1.353       .  S
C493        C494   1.412   1_565  A
C493        C498   1.392       .  A
C493        H500   1.079       .  S
C494       C1469   1.538       .  S
C495        C496   1.391       .  A
C495        F502   1.353       .  S
C496        H501   1.081       .  S
C497        C498   1.398       .  A
C498        F499   1.354       .  S
C503        C504   1.400       .  A
C503        C508   1.391       .  A
C503        H510   1.083       .  S
C505        C506   1.392       .  A
C505        F512   1.356       .  S
C506        C507   1.415       .  A
C506       H1033   1.081       .  S
C508        F509   1.355       .  S
H511       C1550   1.081       .  S
C513        C518   1.389       .  A
C513        H520   1.079       .  S
C514       C1486   1.539   1_455  S
C514        C515   1.417       .  A
C515        C516   1.392       .  A
C515       F1566   1.353       .  S
C516        H521   1.081       .  S
C517        C518   1.400       .  A
C518        F519   1.355       .  S
F522       C1037   1.353       .  S
O523       Ni531   1.969       .  S
O523        C707   1.293       .  A
O524        C708   1.279       .  A
O525        C535   1.293       .  A
O526       Ni531   1.898       .  S
O526        C536   1.279       .  A
O527      Ni1054   1.899       .  S
O527        C884   1.279       .  A
O528       Ni532   1.974       .  S
O528        C883   1.294   1_545  A
O529       Ni532   1.897       .  S
O529        C534   1.279       .  A
O530      Ni1054   1.973       .  S
O530        C533   1.293   1_545  A
Ni531      O1046   1.895       .  S
Ni531      O1047   1.971       .  S
Ni531     Ni1228   2.387       .  S
C533        O871   1.293       .  A
C533        C551   1.555       .  S
C534        O872   1.279   1_545  A
C534        C547   1.451       .  S
C535        O702   1.294       .  A
C535        C725   1.558       .  S
C536        O701   1.279       .  A
C536        C549   1.452       .  S
O537       Ni545   1.894       .  S
O537        C721   1.278       .  A
O538       Ni545   1.894   1_556  S
O538        C722   1.278       .  A
O539       Ni545   1.895       .  S
O539        C549   1.279       .  A
O540       Ni545   1.895   1_556  S
O540        C550   1.279       .  A
O541       Ni546   1.899   1_556  S
O541        C898   1.279   1_545  A
O542       Ni546   1.900       .  S
O542        C897   1.280       .  A
O543       Ni546   1.899   1_556  S
O543        C548   1.280   1_545  A
O544       Ni546   1.898       .  S
O544        C547   1.279       .  A
Ni545      Ni720   2.402       .  S
Ni546      Ni893   2.402   1_545  S
C547        O885   1.278   1_545  A
C548        O886   1.278       .  A
C548        C914   1.451       .  S
C549        O716   1.280       .  A
C550        O715   1.279       .  A
C550        C564   1.452       .  S
C551        C883   1.558       .  S
C551        C900   1.350       .  D
C552        C852   1.475       .  S
C552        C865   1.472       .  S
C552        C725   1.350       .  D
O553       Ni561   1.972       .  S
O553        C911   1.294   1_545  A
O554        C912   1.279   1_545  A
O555        C913   1.294   1_545  A
O556       Ni561   1.899       .  S
O556        C914   1.279   1_545  A
O557       Ni562   1.896       .  S
O557        C566   1.279       .  A
O558        C565   1.293       .  A
O559        C564   1.279       .  A
O560       Ni562   1.967       .  S
O560        C563   1.292       .  A
Ni561      O1076   1.899       .  S
Ni561      O1077   1.976       .  S
Ni561      Ni910   2.387   1_545  S
Ni562      O1080   1.970       .  S
Ni562      O1081   1.896       .  S
Ni562      Ni735   2.387       .  S
C563        O727   1.294       .  A
C563        C567   1.554       .  S
C564        O728   1.279       .  A
C565        O729   1.294       .  A
C565        C567   1.558       .  S
C566        O730   1.279       .  A
C566        C722   1.451       .  S
C567        C568   1.351       .  D
C568        C658   1.474       .  S
C568        C671   1.473       .  S
C569        C638   1.474       .  S
C569        C648   1.473       .  S
C569        C570   1.351       .  D
C570        C583   1.558       .  S
C570        C581   1.553       .  S
O571       Ni753   1.971       .  S
O572       Ni579   1.898       .  S
O573       Ni579   1.976       .  S
O574       Ni753   1.900       .  S
O575       Ni754   1.898       .  S
O575        C584   1.279       .  A
O576       Ni580   1.971   1_545  S
O576        C583   1.293       .  A
O577       Ni580   1.896   1_545  S
O577        C582   1.279       .  A
O578       Ni754   1.966       .  S
O578        C581   1.292       .  A
Ni579       O919   1.971   1_545  S
Ni579       O922   1.900   1_545  S
Ni580       O923   1.898       .  S
Ni580       O926   1.966       .  S
Ni580     Ni1101   2.387   1_565  S
C581       O1093   1.293       .  A
C582       O1094   1.279       .  A
C582        C595   1.452       .  S
C583       O1095   1.294       .  A
C584       O1096   1.279       .  A
C584        C597   1.452       .  S
O585       Ni593   1.898       .  S
O586       Ni593   1.899       .  S
O587       Ni593   1.898       .  S
O588       Ni593   1.897       .  S
O589       Ni594   1.896       .  S
O589        C598   1.279       .  A
O590       Ni594   1.896       .  S
O590        C597   1.279       .  A
O591       Ni594   1.897       .  S
O591        C596   1.279       .  A
O592       Ni594   1.897       .  S
O592        C595   1.279       .  A
Ni594     Ni1115   2.402       .  S
C595       O1107   1.279       .  A
C596       O1108   1.280       .  A
C596        C613   1.453       .  S
C597       O1109   1.279       .  A
C598       O1110   1.279       .  A
C598        C611   1.452       .  S
C599        C641   1.543       .  S
C599        C825   1.536       .  S
C599        C661   1.541       .  S
C599       C1190   1.538       .  S
O600       Ni608   1.971       .  S
O600        C610   1.293       .  A
O601       Ni956   1.897   1_545  S
O601        C611   1.279       .  A
O602       Ni956   1.973   1_545  S
O602        C612   1.294       .  A
O603       Ni608   1.899       .  S
O603        C613   1.279       .  A
O604       Ni609   1.899       .  S
O605       Ni957   1.972       .  S
O606       Ni957   1.897       .  S
O607       Ni609   1.969       .  S
Ni608       O775   1.897       .  S
Ni608       O776   1.973       .  S
Ni608     Ni1131   2.387       .  S
Ni609       O779   1.972       .  S
Ni609       O780   1.897       .  S
C610       O1129   1.293       .  A
C610        C614   1.554       .  S
C611       O1128   1.279       .  A
C612       O1127   1.293       .  A
C612        C614   1.557       .  S
C613       O1126   1.279       .  A
C614        C615   1.351       .  D
C615        C618   1.475       .  S
C615        C631   1.471       .  S
C616        C621   1.543       .  S
C616        C802   1.536       .  S
C616        C681   1.541       .  S
C616       C1210   1.539       .  S
C617        C618   1.400       .  A
C617        C622   1.392       .  A
C617        H624   1.081       .  S
C618       C1141   1.398       .  A
C619        C620   1.392       .  A
C619        F626   1.356       .  S
C620        H625   1.079       .  S
C621       C1142   1.415       .  A
C621        C622   1.416       .  A
C622        F623   1.355       .  S
C627        C628   1.414       .  A
C627        C632   1.390       .  A
C627        H634   1.079       .  S
C628        C964   1.536       .  S
C628       C1151   1.417       .  A
C629        C630   1.390       .  A
C629        F636   1.355       .  S
C630        H635   1.081       .  S
C631       C1152   1.399       .  A
C631        C632   1.397       .  A
C632        F633   1.357       .  S
C637        C638   1.396       .  A
C637        C642   1.390       .  A
C637        H644   1.079       .  S
C638       C1161   1.397       .  A
C639        C640   1.391       .  A
C639        F646   1.356       .  S
C640        H645   1.076       .  S
C641       C1162   1.411       .  A
C641        C642   1.418       .  A
C642        F643   1.354       .  S
C647        C652   1.392       .  A
C647        H654   1.080       .  S
C648       C1169   1.397       .  A
C648        C649   1.399       .  A
C649        C650   1.393       .  A
C649        F656   1.354       .  S
C650        C651   1.410       .  A
C650        H655   1.077       .  S
C651        C947   1.536       .  S
C651       C1174   1.416       .  A
C652        F653   1.352       .  S
C657        C658   1.397       .  A
C657        C662   1.391       .  A
C657        H664   1.082       .  S
C658        C833   1.397       .  A
C659       C1006   1.397       .  A
C659        C660   1.388       .  A
C659        F666   1.355       .  S
C660       C1009   1.413   1_565  A
C660        H665   1.080       .  S
C661        C834   1.413       .  A
C661        C662   1.415       .  A
C662       F1185   1.353       .  S
C667        C668   1.412       .  A
C667        C672   1.392       .  A
C667        H674   1.079       .  S
C668        C843   1.415       .  A
C669       C1016   1.415       .  A
C669        C670   1.391       .  A
C669        F676   1.353       .  S
C670       C1019   1.398   1_545  A
C670        H675   1.081       .  S
C671        C844   1.398       .  A
C671        C672   1.398       .  A
C672        F673   1.354       .  S
C677        C678   1.400       .  A
C677        C682   1.391       .  A
C677        H684   1.083       .  S
C678        C900   1.475   1_545  S
C678       C1027   1.397   1_545  A
C679        C852   1.397       .  A
C679        C680   1.392       .  A
C679        F686   1.356       .  S
C680        C681   1.415       .  A
C680       H1207   1.081       .  S
C681        C856   1.416       .  A
C682       C1029   1.416   1_545  A
C682        F683   1.355       .  S
C687       C1036   1.410   1_565  A
C687        C692   1.389       .  A
C687        H694   1.079       .  S
C688        C861   1.410       .  A
C688        C689   1.417       .  A
C689        C690   1.392       .  A
C690        C865   1.396       .  A
C690        H695   1.081       .  S
C691        C900   1.472       .  S
C691       C1038   1.396   1_565  A
C691        C692   1.400       .  A
C692        F693   1.355       .  S
F696       C1211   1.353       .  S
O697       Ni705   1.969       .  S
O697        C881   1.293       .  A
O698        C882   1.279       .  A
O699        C709   1.293       .  A
O700       Ni705   1.898       .  S
O700        C710   1.279       .  A
O701      Ni1228   1.899       .  S
O702       Ni706   1.974       .  S
O703       Ni706   1.897       .  S
O703        C708   1.279       .  A
O704      Ni1228   1.973       .  S
O704        C707   1.293       .  A
Ni705      O1220   1.895       .  S
Ni705      O1221   1.971       .  S
Ni705     Ni1402   2.387       .  S
C707        C725   1.555       .  S
C708        C721   1.451       .  S
C709        O876   1.294       .  A
C709        C899   1.558       .  S
C710        O875   1.279       .  A
C710        C723   1.452       .  S
O711       Ni719   1.894       .  S
O711        C895   1.278       .  A
O712       Ni719   1.894   1_556  S
O712        C896   1.278       .  A
O713       Ni719   1.895       .  S
O713        C723   1.279       .  A
O714       Ni719   1.895   1_556  S
O714        C724   1.279       .  A
O715       Ni720   1.899   1_556  S
O716       Ni720   1.900       .  S
O717       Ni720   1.899   1_556  S
O717        C722   1.280       .  A
O718       Ni720   1.898       .  S
O718        C721   1.279       .  A
Ni719      Ni894   2.402       .  S
C723        O890   1.280       .  A
C724        O889   1.279       .  A
C724        C738   1.452       .  S
C726       C1026   1.475       .  S
C726       C1039   1.472       .  S
C726        C899   1.350       .  D
O727       Ni735   1.972       .  S
O730       Ni735   1.899       .  S
O731       Ni736   1.896       .  S
O731        C740   1.279       .  A
O732        C739   1.293       .  A
O733        C738   1.279       .  A
O734       Ni736   1.967       .  S
O734        C737   1.292       .  A
Ni735      O1250   1.899       .  S
Ni735      O1251   1.976       .  S
Ni736      O1254   1.970       .  S
Ni736      O1255   1.896       .  S
Ni736      Ni909   2.387       .  S
C737        O901   1.294       .  A
C737        C741   1.554       .  S
C738        O902   1.279       .  A
C739        O903   1.294       .  A
C739        C741   1.558       .  S
C740        O904   1.279       .  A
C740        C896   1.451       .  S
C741        C742   1.351       .  D
C742        C832   1.474       .  S
C742        C845   1.473       .  S
C743        C812   1.474       .  S
C743        C822   1.473       .  S
C743        C744   1.351       .  D
C744        C757   1.558       .  S
C744        C755   1.553       .  S
O745       Ni927   1.971       .  S
O746       Ni753   1.898       .  S
O747       Ni753   1.976       .  S
O748       Ni927   1.900       .  S
O749       Ni928   1.898       .  S
O749        C758   1.279       .  A
O750       Ni754   1.971       .  S
O750        C757   1.293       .  A
O751       Ni754   1.896       .  S
O751        C756   1.279       .  A
O752       Ni928   1.966       .  S
O752        C755   1.292       .  A
Ni754     Ni1275   2.387       .  S
C755       O1267   1.293       .  A
C756       O1268   1.279       .  A
C756        C769   1.452       .  S
C757       O1269   1.294       .  A
C758       O1270   1.279       .  A
C758        C771   1.452       .  S
O759       Ni767   1.898       .  S
O760       Ni767   1.899       .  S
O761       Ni767   1.898       .  S
O762       Ni767   1.897       .  S
O763       Ni768   1.896       .  S
O763        C772   1.279       .  A
O764       Ni768   1.896       .  S
O764        C771   1.279       .  A
O765       Ni768   1.897       .  S
O765        C770   1.279       .  A
O766       Ni768   1.897       .  S
O766        C769   1.279       .  A
Ni768     Ni1289   2.402       .  S
C769       O1281   1.279       .  A
C770       O1282   1.280       .  A
C770        C787   1.453       .  S
C771       O1283   1.279       .  A
C772       O1284   1.279       .  A
C772        C785   1.452       .  S
C773        C815   1.543       .  S
C773        C999   1.536       .  S
C773        C835   1.541       .  S
C773       C1364   1.538       .  S
O774       Ni782   1.971       .  S
O774        C784   1.293       .  A
O775        C785   1.279       .  A
O776        C786   1.294       .  A
O777       Ni782   1.899       .  S
O777        C787   1.279       .  A
O778       Ni783   1.899       .  S
O781       Ni783   1.969       .  S
Ni782       O949   1.897       .  S
Ni782       O950   1.973       .  S
Ni782     Ni1305   2.387       .  S
Ni783       O953   1.972       .  S
Ni783       O954   1.897       .  S
C784       O1303   1.293       .  A
C784        C788   1.554       .  S
C785       O1302   1.279       .  A
C786       O1301   1.293       .  A
C786        C788   1.557       .  S
C787       O1300   1.279       .  A
C788        C789   1.351       .  D
C789        C792   1.475       .  S
C789        C805   1.471       .  S
C790        C795   1.543       .  S
C790        C976   1.536       .  S
C790        C855   1.541       .  S
C790       C1384   1.539       .  S
C791        C792   1.400       .  A
C791        C796   1.392       .  A
C791        H798   1.081       .  S
C792       C1315   1.398       .  A
C793        C794   1.392       .  A
C793        F800   1.356       .  S
C794        H799   1.079       .  S
C795       C1316   1.415       .  A
C795        C796   1.416       .  A
C796        F797   1.355       .  S
C801        C802   1.414       .  A
C801        C806   1.390       .  A
C801        H808   1.079       .  S
C802       C1325   1.417       .  A
C803        C804   1.390       .  A
C803        F810   1.355       .  S
C804        H809   1.081       .  S
C805       C1326   1.399       .  A
C805        C806   1.397       .  A
C806        F807   1.357       .  S
C811        C812   1.396       .  A
C811        C816   1.390       .  A
C811        H818   1.079       .  S
C812       C1335   1.397       .  A
C813        C814   1.391       .  A
C813        F820   1.356       .  S
C814        H819   1.076       .  S
C815       C1336   1.411       .  A
C815        C816   1.418       .  A
C816        F817   1.354       .  S
C821        C826   1.392       .  A
C821        H828   1.080       .  S
C822       C1343   1.397       .  A
C822        C823   1.399       .  A
C823        C824   1.393       .  A
C823        F830   1.354       .  S
C824        C825   1.410       .  A
C824        H829   1.077       .  S
C825       C1348   1.416       .  A
C826        F827   1.352       .  S
C831        C832   1.397       .  A
C831        C836   1.391       .  A
C831        H838   1.082       .  S
C832       C1007   1.397       .  A
C833        C834   1.388       .  A
C833        F840   1.355       .  S
C834        H839   1.080       .  S
C835       C1008   1.413       .  A
C835        C836   1.415       .  A
C836       F1359   1.353       .  S
C841        C842   1.412       .  A
C841        C846   1.392       .  A
C841        H848   1.079       .  S
C842       C1017   1.415       .  A
C843        C844   1.391       .  A
C843        F850   1.353       .  S
C844        H849   1.081       .  S
C845       C1018   1.398       .  A
C845        C846   1.398       .  A
C846        F847   1.354       .  S
C851        C852   1.400       .  A
C851        C856   1.391       .  A
C851        H858   1.083       .  S
C853       C1026   1.397       .  A
C853        C854   1.392       .  A
C853        F860   1.356       .  S
C854        C855   1.415       .  A
C854       H1381   1.081       .  S
C855       C1030   1.416       .  A
C856        F857   1.355       .  S
C861        C866   1.389       .  A
C861        H868   1.079       .  S
C862       C1035   1.410       .  A
C862        C863   1.417       .  A
C863        C864   1.392       .  A
C864       C1039   1.396       .  A
C864        H869   1.081       .  S
C865        C866   1.400       .  A
C866        F867   1.355       .  S
F870       C1385   1.353       .  S
O871       Ni879   1.969       .  S
O873        C883   1.293       .  A
O874       Ni879   1.898       .  S
O874        C884   1.279   1_565  A
O875      Ni1402   1.899       .  S
O876       Ni880   1.974       .  S
O877       Ni880   1.897       .  S
O877        C882   1.279       .  A
O878      Ni1402   1.973       .  S
O878        C881   1.293       .  A
Ni879      O1394   1.895       .  S
Ni879      O1395   1.971       .  S
Ni879     Ni1054   2.387   1_565  S
C881        C899   1.555       .  S
C882        C895   1.451       .  S
C884        C897   1.452       .  S
O885       Ni893   1.894       .  S
O886       Ni893   1.894   1_556  S
O887       Ni893   1.895       .  S
O887        C897   1.279   1_565  A
O888       Ni893   1.895   1_556  S
O888        C898   1.279       .  A
O889       Ni894   1.899   1_556  S
O890       Ni894   1.900       .  S
O891       Ni894   1.899   1_556  S
O891        C896   1.280       .  A
O892       Ni894   1.898       .  S
O892        C895   1.279       .  A
C898        C912   1.452       .  S
O901       Ni909   1.972       .  S
O904       Ni909   1.899       .  S
O905       Ni910   1.896       .  S
O905        C914   1.279       .  A
O906        C913   1.293       .  A
O907        C912   1.279       .  A
O908       Ni910   1.967       .  S
O908        C911   1.292       .  A
Ni909      O1424   1.899       .  S
Ni909      O1425   1.976       .  S
Ni910      O1428   1.970       .  S
Ni910      O1429   1.896       .  S
C911        C915   1.554       .  S
C913        C915   1.558       .  S
C915        C916   1.351       .  D
C916       C1006   1.474       .  S
C916       C1019   1.473       .  S
C917        C986   1.474       .  S
C917        C996   1.473       .  S
C917        C918   1.351       .  D
C918        C931   1.558       .  S
C918        C929   1.553       .  S
O920       Ni927   1.898       .  S
O921       Ni927   1.976       .  S
O923        C932   1.279       .  A
O924       Ni928   1.971       .  S
O924        C931   1.293       .  A
O925       Ni928   1.896       .  S
O925        C930   1.279       .  A
O926        C929   1.292       .  A
Ni928     Ni1449   2.387       .  S
C929       O1441   1.293       .  A
C930       O1442   1.279       .  A
C930        C943   1.452       .  S
C931       O1443   1.294       .  A
C932       O1444   1.279       .  A
C932        C945   1.452       .  S
O933       Ni941   1.898       .  S
O934       Ni941   1.899       .  S
O935       Ni941   1.898       .  S
O936       Ni941   1.897       .  S
O937       Ni942   1.896       .  S
O937        C946   1.279       .  A
O938       Ni942   1.896       .  S
O938        C945   1.279       .  A
O939       Ni942   1.897       .  S
O939        C944   1.279       .  A
O940       Ni942   1.897       .  S
O940        C943   1.279       .  A
Ni942     Ni1463   2.402       .  S
C943       O1455   1.279       .  A
C944       O1456   1.280       .  A
C944        C961   1.453       .  S
C945       O1457   1.279       .  A
C946       O1458   1.279       .  A
C946        C959   1.452       .  S
C947        C989   1.543   1_545  S
C947       C1009   1.541       .  S
C947       C1538   1.538       .  S
O948       Ni956   1.971       .  S
O948        C958   1.293       .  A
O949        C959   1.279       .  A
O950        C960   1.294       .  A
O951       Ni956   1.899       .  S
O951        C961   1.279       .  A
O952       Ni957   1.899   1_565  S
O955       Ni957   1.969   1_565  S
Ni956     Ni1479   2.387   1_565  S
C958       O1477   1.293       .  A
C958        C962   1.554       .  S
C959       O1476   1.279       .  A
C960       O1475   1.293       .  A
C960        C962   1.557       .  S
C961       O1474   1.279       .  A
C962        C963   1.351       .  D
C963        C966   1.475       .  S
C963        C979   1.471       .  S
C964        C969   1.543   1_545  S
C964       C1029   1.541   1_545  S
C964       C1558   1.539       .  S
C965        C966   1.400       .  A
C965        C970   1.392       .  A
C965        H972   1.081       .  S
C966       C1489   1.398       .  A
C967        C968   1.392       .  A
C967        F974   1.356       .  S
C968        H973   1.079       .  S
C969       C1490   1.415       .  A
C969        C970   1.416       .  A
C970        F971   1.355       .  S
C975        C976   1.414       .  A
C975        C980   1.390       .  A
C975        H982   1.079       .  S
C976       C1499   1.417       .  A
C977        C978   1.390       .  A
C977        F984   1.355       .  S
C978        H983   1.081       .  S
C979       C1500   1.399       .  A
C979        C980   1.397       .  A
C980        F981   1.357       .  S
C985        C986   1.396       .  A
C985        C990   1.390       .  A
C985        H992   1.079       .  S
C986       C1509   1.397       .  A
C987        C988   1.391       .  A
C987        F994   1.356       .  S
C988        H993   1.076       .  S
C989       C1510   1.411       .  A
C989        C990   1.418       .  A
C990        F991   1.354       .  S
C995       C1000   1.392       .  A
C995       H1002   1.080       .  S
C996       C1517   1.397       .  A
C996        C997   1.399       .  A
C997        C998   1.393       .  A
C997       F1004   1.354       .  S
C998        C999   1.410       .  A
C998       H1003   1.077       .  S
C999       C1522   1.416       .  A
C1000      F1001   1.352       .  S
C1005      C1006   1.397   1_545  A
C1005      C1010   1.391       .  A
C1005      H1012   1.082       .  S
C1007      C1008   1.388       .  A
C1007      F1014   1.355       .  S
C1008      H1013   1.080       .  S
C1009      C1010   1.415       .  A
C1010      F1533   1.353       .  S
C1015      C1016   1.412   1_565  A
C1015      C1020   1.392       .  A
C1015      H1022   1.079       .  S
C1017      C1018   1.391       .  A
C1017      F1024   1.353       .  S
C1018      H1023   1.081       .  S
C1019      C1020   1.398       .  A
C1020      F1021   1.354       .  S
C1025      C1026   1.400       .  A
C1025      C1030   1.391       .  A
C1025      H1032   1.083       .  S
C1027      C1028   1.392       .  A
C1027      F1034   1.356       .  S
C1028      C1029   1.415       .  A
C1028      H1555   1.081       .  S
C1030      F1031   1.355       .  S
C1035      C1040   1.389       .  A
C1035      H1042   1.079       .  S
C1036      C1037   1.417       .  A
C1037      C1038   1.392       .  A
C1038      H1043   1.081       .  S
C1039      C1040   1.400       .  A
C1040      F1041   1.355       .  S
F1044      C1559   1.353       .  S
O1045     Ni1053   1.969       .  S
O1045      C1229   1.293       .  A
O1046      C1230   1.279       .  A
O1047      C1057   1.293       .  A
O1048     Ni1053   1.898       .  S
O1048      C1058   1.279       .  A
O1049      C1406   1.279       .  A
O1050     Ni1054   1.974       .  S
O1050      C1405   1.294   1_545  A
O1051     Ni1054   1.897       .  S
O1051      C1056   1.279       .  A
O1052      C1055   1.293   1_545  A
C1055      O1393   1.293       .  A
C1055      C1073   1.555       .  S
C1056      O1394   1.279   1_545  A
C1056      C1069   1.451       .  S
C1057      O1224   1.294       .  A
C1057      C1247   1.558       .  S
C1058      O1223   1.279       .  A
C1058      C1071   1.452       .  S
O1059     Ni1067   1.894       .  S
O1059      C1243   1.278       .  A
O1060     Ni1067   1.894   1_556  S
O1060      C1244   1.278       .  A
O1061     Ni1067   1.895       .  S
O1061      C1071   1.279       .  A
O1062     Ni1067   1.895   1_556  S
O1062      C1072   1.279       .  A
O1063     Ni1068   1.899   1_556  S
O1063      C1420   1.279   1_545  A
O1064     Ni1068   1.900       .  S
O1064      C1419   1.280       .  A
O1065     Ni1068   1.899   1_556  S
O1065      C1070   1.280   1_545  A
O1066     Ni1068   1.898       .  S
O1066      C1069   1.279       .  A
Ni1067    Ni1242   2.402       .  S
Ni1068    Ni1415   2.402   1_545  S
C1069      O1407   1.278   1_545  A
C1070      O1408   1.278       .  A
C1070      C1436   1.451       .  S
C1071      O1238   1.280       .  A
C1072      O1237   1.279       .  A
C1072      C1086   1.452       .  S
C1073      C1405   1.558       .  S
C1073      C1422   1.350       .  D
C1074      C1374   1.475       .  S
C1074      C1387   1.472       .  S
C1074      C1247   1.350       .  D
O1075     Ni1083   1.972   1_655  S
O1075      C1433   1.294   1_545  A
O1076      C1434   1.279   1_545  A
O1077      C1435   1.294   1_545  A
O1078     Ni1083   1.899   1_655  S
O1078      C1436   1.279   1_545  A
O1079     Ni1084   1.896       .  S
O1079      C1088   1.279       .  A
O1080      C1087   1.293       .  A
O1081      C1086   1.279       .  A
O1082     Ni1084   1.967       .  S
O1082      C1085   1.292       .  A
Ni1083    Ni1432   2.387   1_445  S
Ni1084    Ni1257   2.387   1_655  S
C1085      O1249   1.294       .  A
C1085      C1089   1.554       .  S
C1086      O1250   1.279       .  A
C1087      O1251   1.294       .  A
C1087      C1089   1.558       .  S
C1088      O1252   1.279       .  A
C1088      C1244   1.451       .  S
C1089      C1090   1.351       .  D
C1090      C1180   1.474       .  S
C1090      C1193   1.473       .  S
C1091      C1160   1.474       .  S
C1091      C1170   1.473       .  S
C1091      C1092   1.351       .  D
C1092      C1105   1.558       .  S
C1092      C1103   1.553       .  S
O1093     Ni1275   1.971       .  S
O1094     Ni1101   1.898       .  S
O1095     Ni1101   1.976       .  S
O1096     Ni1275   1.900       .  S
O1097     Ni1276   1.898       .  S
O1097      C1106   1.279       .  A
O1098     Ni1102   1.971   1_545  S
O1098      C1105   1.293       .  A
O1099     Ni1102   1.896   1_545  S
O1099      C1104   1.279       .  A
O1100     Ni1276   1.966       .  S
O1100      C1103   1.292       .  A
Ni1101     O1441   1.971   1_545  S
Ni1101     O1444   1.900   1_545  S
Ni1102     O1445   1.898       .  S
Ni1102     O1448   1.966       .  S
C1104      C1117   1.452   1_655  S
C1106      C1119   1.452   1_655  S
O1107     Ni1115   1.898       .  S
O1108     Ni1115   1.899       .  S
O1109     Ni1115   1.898       .  S
O1110     Ni1115   1.897       .  S
O1111     Ni1116   1.896       .  S
O1111      C1120   1.279   1_655  A
O1112     Ni1116   1.896       .  S
O1112      C1119   1.279   1_655  A
O1113     Ni1116   1.897       .  S
O1113      C1118   1.279   1_655  A
O1114     Ni1116   1.897       .  S
O1114      C1117   1.279   1_655  A
C1118      C1135   1.453       .  S
C1120      C1133   1.452       .  S
C1121      C1163   1.543   1_455  S
C1121      C1347   1.536       .  S
C1121      C1183   1.541   1_455  S
O1122     Ni1130   1.971       .  S
O1122      C1132   1.293   1_655  A
O1123     Ni1478   1.897   1_545  S
O1123      C1133   1.279   1_655  A
O1124     Ni1478   1.973   1_545  S
O1124      C1134   1.294   1_655  A
O1125     Ni1130   1.899       .  S
O1125      C1135   1.279   1_655  A
O1126     Ni1131   1.899       .  S
O1127     Ni1479   1.972       .  S
O1128     Ni1479   1.897       .  S
O1129     Ni1131   1.969       .  S
Ni1130     O1297   1.897       .  S
Ni1130     O1298   1.973       .  S
Ni1131     O1301   1.972       .  S
Ni1131     O1302   1.897       .  S
C1132      C1136   1.554       .  S
C1134      C1136   1.557       .  S
C1136      C1137   1.351       .  D
C1137      C1140   1.475   1_455  S
C1137      C1153   1.471       .  S
C1138      C1143   1.543   1_655  S
C1138      C1324   1.536   1_655  S
C1138      C1203   1.541       .  S
C1139      C1140   1.400       .  A
C1139      C1144   1.392       .  A
C1139      H1146   1.081       .  S
C1141      C1142   1.392       .  A
C1141      F1148   1.356       .  S
C1142      H1147   1.079       .  S
C1143      C1144   1.416   1_455  A
C1144      F1145   1.355       .  S
C1149      C1150   1.414   1_655  A
C1149      C1154   1.390       .  A
C1149      H1156   1.079       .  S
C1150      C1486   1.536   1_455  S
C1151      C1152   1.390       .  A
C1151      F1158   1.355       .  S
C1152      H1157   1.081       .  S
C1153      C1154   1.397   1_455  A
C1154      F1155   1.357       .  S
C1159      C1160   1.396       .  A
C1159      C1164   1.390       .  A
C1159      H1166   1.079       .  S
C1161      C1162   1.391       .  A
C1161      F1168   1.356       .  S
C1162      H1167   1.076       .  S
C1163      C1164   1.418       .  A
C1164      F1165   1.354       .  S
C1169      C1174   1.392       .  A
C1169      H1176   1.080       .  S
C1170      C1171   1.399       .  A
C1171      C1172   1.393       .  A
C1171      F1178   1.354       .  S
C1172      C1173   1.410   1_655  A
C1172      H1177   1.077       .  S
C1173      C1469   1.536       .  S
C1174      F1175   1.352       .  S
C1179      C1180   1.397       .  A
C1179      C1184   1.391       .  A
C1179      H1186   1.082       .  S
C1180      C1355   1.397       .  A
C1181      C1528   1.397       .  A
C1181      C1182   1.388       .  A
C1181      F1188   1.355       .  S
C1182      C1531   1.413   1_565  A
C1182      H1187   1.080       .  S
C1183      C1356   1.413       .  A
C1183      C1184   1.415       .  A
C1189      C1190   1.412       .  A
C1189      C1194   1.392       .  A
C1189      H1196   1.079       .  S
C1190      C1365   1.415       .  A
C1191      C1538   1.415       .  A
C1191      C1192   1.391       .  A
C1191      F1198   1.353       .  S
C1192      C1541   1.398   1_545  A
C1192      H1197   1.081       .  S
C1193      C1366   1.398       .  A
C1193      C1194   1.398       .  A
C1194      F1195   1.354       .  S
C1199      C1200   1.400       .  A
C1199      C1204   1.391       .  A
C1199      H1206   1.083       .  S
C1200      C1422   1.475   1_545  S
C1200      C1549   1.397   1_545  A
C1201      C1374   1.397       .  A
C1201      C1202   1.392       .  A
C1201      F1208   1.356       .  S
C1202      C1203   1.415       .  A
C1203      C1378   1.416       .  A
C1204      C1551   1.416   1_545  A
C1204      F1205   1.355       .  S
C1209      C1558   1.410   1_565  A
C1209      C1214   1.389       .  A
C1209      H1216   1.079       .  S
C1210      C1383   1.410       .  A
C1210      C1211   1.417       .  A
C1211      C1212   1.392       .  A
C1212      C1387   1.396       .  A
C1212      H1217   1.081       .  S
C1213      C1422   1.472       .  S
C1213      C1560   1.396   1_565  A
C1213      C1214   1.400       .  A
C1214      F1215   1.355       .  S
O1219     Ni1227   1.969       .  S
O1219      C1403   1.293       .  A
O1220      C1404   1.279       .  A
O1221      C1231   1.293       .  A
O1222     Ni1227   1.898       .  S
O1222      C1232   1.279       .  A
O1224     Ni1228   1.974       .  S
O1225     Ni1228   1.897       .  S
O1225      C1230   1.279       .  A
O1226      C1229   1.293       .  A
C1229      C1247   1.555       .  S
C1230      C1243   1.451       .  S
C1231      O1398   1.294       .  A
C1231      C1421   1.558       .  S
C1232      O1397   1.279       .  A
C1232      C1245   1.452       .  S
O1233     Ni1241   1.894       .  S
O1233      C1417   1.278       .  A
O1234     Ni1241   1.894   1_556  S
O1234      C1418   1.278       .  A
O1235     Ni1241   1.895       .  S
O1235      C1245   1.279       .  A
O1236     Ni1241   1.895   1_556  S
O1236      C1246   1.279       .  A
O1237     Ni1242   1.899   1_556  S
O1238     Ni1242   1.900       .  S
O1239     Ni1242   1.899   1_556  S
O1239      C1244   1.280       .  A
O1240     Ni1242   1.898       .  S
O1240      C1243   1.279       .  A
Ni1241    Ni1416   2.402       .  S
C1245      O1412   1.280       .  A
C1246      O1411   1.279       .  A
C1246      C1260   1.452       .  S
C1248      C1548   1.475       .  S
C1248      C1561   1.472       .  S
C1248      C1421   1.350       .  D
O1249     Ni1257   1.972   1_655  S
O1252     Ni1257   1.899   1_655  S
O1253     Ni1258   1.896       .  S
O1253      C1262   1.279       .  A
O1254      C1261   1.293       .  A
O1255      C1260   1.279       .  A
O1256     Ni1258   1.967       .  S
O1256      C1259   1.292       .  A
Ni1258    Ni1431   2.387   1_655  S
C1259      O1423   1.294       .  A
C1259      C1263   1.554       .  S
C1260      O1424   1.279       .  A
C1261      O1425   1.294       .  A
C1261      C1263   1.558       .  S
C1262      O1426   1.279       .  A
C1262      C1418   1.451       .  S
C1263      C1264   1.351       .  D
C1264      C1354   1.474       .  S
C1264      C1367   1.473       .  S
C1265      C1334   1.474       .  S
C1265      C1344   1.473       .  S
C1265      C1266   1.351       .  D
C1266      C1279   1.558       .  S
C1266      C1277   1.553       .  S
O1267     Ni1449   1.971       .  S
O1268     Ni1275   1.898       .  S
O1269     Ni1275   1.976       .  S
O1270     Ni1449   1.900       .  S
O1271     Ni1450   1.898       .  S
O1271      C1280   1.279       .  A
O1272     Ni1276   1.971       .  S
O1272      C1279   1.293       .  A
O1273     Ni1276   1.896       .  S
O1273      C1278   1.279       .  A
O1274     Ni1450   1.966       .  S
O1274      C1277   1.292       .  A
C1278      C1291   1.452   1_655  S
C1280      C1293   1.452   1_655  S
O1281     Ni1289   1.898       .  S
O1282     Ni1289   1.899       .  S
O1283     Ni1289   1.898       .  S
O1284     Ni1289   1.897       .  S
O1285     Ni1290   1.896       .  S
O1285      C1294   1.279   1_655  A
O1286     Ni1290   1.896       .  S
O1286      C1293   1.279   1_655  A
O1287     Ni1290   1.897       .  S
O1287      C1292   1.279   1_655  A
O1288     Ni1290   1.897       .  S
O1288      C1291   1.279   1_655  A
C1292      C1309   1.453       .  S
C1294      C1307   1.452       .  S
C1295      C1337   1.543   1_455  S
C1295      C1521   1.536       .  S
C1295      C1357   1.541   1_455  S
O1296     Ni1304   1.971       .  S
O1296      C1306   1.293   1_655  A
O1297      C1307   1.279   1_655  A
O1298      C1308   1.294   1_655  A
O1299     Ni1304   1.899       .  S
O1299      C1309   1.279   1_655  A
O1300     Ni1305   1.899       .  S
O1303     Ni1305   1.969       .  S
Ni1304     O1471   1.897       .  S
Ni1304     O1472   1.973       .  S
Ni1305     O1475   1.972       .  S
Ni1305     O1476   1.897       .  S
C1306      C1310   1.554       .  S
C1308      C1310   1.557       .  S
C1310      C1311   1.351       .  D
C1311      C1314   1.475   1_455  S
C1311      C1327   1.471       .  S
C1312      C1317   1.543   1_655  S
C1312      C1498   1.536   1_655  S
C1312      C1377   1.541       .  S
C1313      C1314   1.400       .  A
C1313      C1318   1.392       .  A
C1313      H1320   1.081       .  S
C1315      C1316   1.392       .  A
C1315      F1322   1.356       .  S
C1316      H1321   1.079       .  S
C1317      C1318   1.416   1_455  A
C1318      F1319   1.355       .  S
C1323      C1324   1.414   1_655  A
C1323      C1328   1.390       .  A
C1323      H1330   1.079       .  S
C1325      C1326   1.390       .  A
C1325      F1332   1.355       .  S
C1326      H1331   1.081       .  S
C1327      C1328   1.397   1_455  A
C1328      F1329   1.357       .  S
C1333      C1334   1.396       .  A
C1333      C1338   1.390       .  A
C1333      H1340   1.079       .  S
C1335      C1336   1.391       .  A
C1335      F1342   1.356       .  S
C1336      H1341   1.076       .  S
C1337      C1338   1.418       .  A
C1338      F1339   1.354       .  S
C1343      C1348   1.392       .  A
C1343      H1350   1.080       .  S
C1344      C1345   1.399       .  A
C1345      C1346   1.393       .  A
C1345      F1352   1.354       .  S
C1346      C1347   1.410   1_655  A
C1346      H1351   1.077       .  S
C1348      F1349   1.352       .  S
C1353      C1354   1.397       .  A
C1353      C1358   1.391       .  A
C1353      H1360   1.082       .  S
C1354      C1529   1.397       .  A
C1355      C1356   1.388       .  A
C1355      F1362   1.355       .  S
C1356      H1361   1.080       .  S
C1357      C1530   1.413       .  A
C1357      C1358   1.415       .  A
C1363      C1364   1.412       .  A
C1363      C1368   1.392       .  A
C1363      H1370   1.079       .  S
C1364      C1539   1.415       .  A
C1365      C1366   1.391       .  A
C1365      F1372   1.353       .  S
C1366      H1371   1.081       .  S
C1367      C1540   1.398       .  A
C1367      C1368   1.398       .  A
C1368      F1369   1.354       .  S
C1373      C1374   1.400       .  A
C1373      C1378   1.391       .  A
C1373      H1380   1.083       .  S
C1375      C1548   1.397       .  A
C1375      C1376   1.392       .  A
C1375      F1382   1.356       .  S
C1376      C1377   1.415       .  A
C1377      C1552   1.416       .  A
C1378      F1379   1.355       .  S
C1383      C1388   1.389       .  A
C1383      H1390   1.079       .  S
C1384      C1557   1.410       .  A
C1384      C1385   1.417       .  A
C1385      C1386   1.392       .  A
C1386      C1561   1.396       .  A
C1386      H1391   1.081       .  S
C1387      C1388   1.400       .  A
C1388      F1389   1.355       .  S
O1393     Ni1401   1.969       .  S
O1395      C1405   1.293       .  A
O1396     Ni1401   1.898       .  S
O1396      C1406   1.279   1_565  A
O1398     Ni1402   1.974       .  S
O1399     Ni1402   1.897       .  S
O1399      C1404   1.279       .  A
O1400      C1403   1.293       .  A
C1403      C1421   1.555       .  S
C1404      C1417   1.451       .  S
C1406      C1419   1.452       .  S
O1407     Ni1415   1.894       .  S
O1408     Ni1415   1.894   1_556  S
O1409     Ni1415   1.895       .  S
O1409      C1419   1.279   1_565  A
O1410     Ni1415   1.895   1_556  S
O1410      C1420   1.279       .  A
O1411     Ni1416   1.899   1_556  S
O1412     Ni1416   1.900       .  S
O1413     Ni1416   1.899   1_556  S
O1413      C1418   1.280       .  A
O1414     Ni1416   1.898       .  S
O1414      C1417   1.279       .  A
C1420      C1434   1.452       .  S
O1423     Ni1431   1.972   1_655  S
O1426     Ni1431   1.899   1_655  S
O1427     Ni1432   1.896       .  S
O1427      C1436   1.279       .  A
O1428      C1435   1.293       .  A
O1429      C1434   1.279       .  A
O1430     Ni1432   1.967       .  S
O1430      C1433   1.292       .  A
C1433      C1437   1.554       .  S
C1435      C1437   1.558       .  S
C1437      C1438   1.351       .  D
C1438      C1528   1.474       .  S
C1438      C1541   1.473       .  S
C1439      C1508   1.474       .  S
C1439      C1518   1.473       .  S
C1439      C1440   1.351       .  D
C1440      C1453   1.558       .  S
C1440      C1451   1.553       .  S
O1442     Ni1449   1.898       .  S
O1443     Ni1449   1.976       .  S
O1445      C1454   1.279       .  A
O1446     Ni1450   1.971       .  S
O1446      C1453   1.293       .  A
O1447     Ni1450   1.896       .  S
O1447      C1452   1.279       .  A
O1448      C1451   1.292       .  A
C1452      C1465   1.452   1_655  S
C1454      C1467   1.452   1_655  S
O1455     Ni1463   1.898       .  S
O1456     Ni1463   1.899       .  S
O1457     Ni1463   1.898       .  S
O1458     Ni1463   1.897       .  S
O1459     Ni1464   1.896       .  S
O1459      C1468   1.279   1_655  A
O1460     Ni1464   1.896       .  S
O1460      C1467   1.279   1_655  A
O1461     Ni1464   1.897       .  S
O1461      C1466   1.279   1_655  A
O1462     Ni1464   1.897       .  S
O1462      C1465   1.279   1_655  A
C1466      C1483   1.453       .  S
C1468      C1481   1.452       .  S
C1469      C1511   1.543   1_445  S
C1469      C1531   1.541   1_455  S
O1470     Ni1478   1.971       .  S
O1470      C1480   1.293   1_655  A
O1471      C1481   1.279   1_655  A
O1472      C1482   1.294   1_655  A
O1473     Ni1478   1.899       .  S
O1473      C1483   1.279   1_655  A
O1474     Ni1479   1.899   1_565  S
O1477     Ni1479   1.969   1_565  S
C1480      C1484   1.554       .  S
C1482      C1484   1.557       .  S
C1484      C1485   1.351       .  D
C1485      C1488   1.475   1_455  S
C1485      C1501   1.471       .  S
C1486      C1491   1.543   1_645  S
C1486      C1551   1.541   1_545  S
C1487      C1488   1.400       .  A
C1487      C1492   1.392       .  A
C1487      H1494   1.081       .  S
C1489      C1490   1.392       .  A
C1489      F1496   1.356       .  S
C1490      H1495   1.079       .  S
C1491      C1492   1.416   1_455  A
C1492      F1493   1.355       .  S
C1497      C1498   1.414   1_655  A
C1497      C1502   1.390       .  A
C1497      H1504   1.079       .  S
C1499      C1500   1.390       .  A
C1499      F1506   1.355       .  S
C1500      H1505   1.081       .  S
C1501      C1502   1.397   1_455  A
C1502      F1503   1.357       .  S
C1507      C1508   1.396       .  A
C1507      C1512   1.390       .  A
C1507      H1514   1.079       .  S
C1509      C1510   1.391       .  A
C1509      F1516   1.356       .  S
C1510      H1515   1.076       .  S
C1511      C1512   1.418       .  A
C1512      F1513   1.354       .  S
C1517      C1522   1.392       .  A
C1517      H1524   1.080       .  S
C1518      C1519   1.399       .  A
C1519      C1520   1.393       .  A
C1519      F1526   1.354       .  S
C1520      C1521   1.410   1_655  A
C1520      H1525   1.077       .  S
C1522      F1523   1.352       .  S
C1527      C1528   1.397   1_545  A
C1527      C1532   1.391       .  A
C1527      H1534   1.082       .  S
C1529      C1530   1.388       .  A
C1529      F1536   1.355       .  S
C1530      H1535   1.080       .  S
C1531      C1532   1.415       .  A
C1537      C1538   1.412   1_565  A
C1537      C1542   1.392       .  A
C1537      H1544   1.079       .  S
C1539      C1540   1.391       .  A
C1539      F1546   1.353       .  S
C1540      H1545   1.081       .  S
C1541      C1542   1.398       .  A
C1542      F1543   1.354       .  S
C1547      C1548   1.400       .  A
C1547      C1552   1.391       .  A
C1547      H1554   1.083       .  S
C1549      C1550   1.392       .  A
C1549      F1556   1.356       .  S
C1550      C1551   1.415       .  A
C1552      F1553   1.355       .  S
C1557      C1562   1.389       .  A
C1557      H1564   1.079       .  S
C1558      C1559   1.417       .  A
C1559      C1560   1.392       .  A
C1560      H1565   1.081       .  S
C1561      C1562   1.400       .  A
C1562      F1563   1.355       .  S
