geometry optimzed in LAMMPS
_audit_creation_date              2020-11-30 
_audit_creation_method            'lammps2cif' 
_symmetry_space_group_name_H-M    'P1' 
_symmetry_Int_Tables_number       1 
_symmetry_cell_setting            triclinic 
loop_ 
_symmetry_equiv_pos_as_xyz 
  x,y,z 
_cell_length_a                    51.58913 
_cell_length_b                    51.58478710726207 
_cell_length_c                    43.798018594753685 
_cell_angle_alpha                 89.85409579273552 
_cell_angle_beta                  90.0176395263518 
_cell_angle_gamma                 120.2095872771498 
loop_ 
_atom_site_label 
_atom_site_type_symbol 
_atom_site_fract_x 
_atom_site_fract_y 
_atom_site_fract_z 
_atom_site_charge 
C1          C  0.23379192  0.21119496  0.14947757     0.80000
N2          N  0.23127919  0.21265839  0.11867430    -0.78300
C3          C  0.25339148  0.23565435  0.10246968     0.82500
N4          N  0.27796737  0.25732739  0.11716075    -0.78200
C5          C  0.28086101  0.25591489  0.14779359     0.82600
N6          N  0.25865313  0.23286740  0.16363498    -0.79900
C7          C  0.22425341  0.22051049  0.02303572     0.80000
N8          N  0.24613045  0.24532548  0.00865056    -0.78300
C9          C  0.27024819  0.26645444  0.02434074     0.82500
N10         N  0.27217804  0.26276655  0.05469205    -0.78200
C11         C  0.25052674  0.23830842  0.06944979     0.82600
N12         N  0.22662462  0.21699081  0.05356522    -0.79900
C13         C  0.25171252  0.48850357  0.14873465     0.80000
N14         N  0.25056099  0.48535782  0.11781468    -0.78300
C15         C  0.22747490  0.48440416  0.10178141     0.82500
N16         N  0.20535769  0.48613613  0.11680582    -0.78200
C17         C  0.20613830  0.48903473  0.14760723     0.82600
N18         N  0.22940929  0.49025817  0.16329383    -0.79900
C19         C  0.24481809  0.47470447  0.02178178     0.80000
N20         N  0.24716272  0.47862412  0.05259605    -0.78300
C21         C  0.22572830  0.48094932  0.06840771     0.82500
N22         N  0.20215757  0.47974934  0.05324708    -0.78200
C23         C  0.19968865  0.47599021  0.02253485     0.82600
N24         N  0.22102165  0.47338391  0.00705564    -0.79900
C25         C  0.47473869  0.23238303  0.14760524     0.80000
N26         N  0.48060772  0.23519282  0.11708896    -0.78300
C27         C  0.48318414  0.21362408  0.10183929     0.82500
N28         N  0.48037978  0.18952164  0.11732525    -0.78200
C29         C  0.47455711  0.18642664  0.14775321     0.82600
N30         N  0.47173697  0.20794431  0.16271993    -0.79900
C31         C  0.49124063  0.23919352  0.02145130     0.80000
N32         N  0.48780314  0.23790733  0.05227589    -0.78300
C33         C  0.48838433  0.21580922  0.06865158     0.82500
N34         N  0.49241046  0.19484365  0.05401225    -0.78200
C35         C  0.49612306  0.19600249  0.02320270     0.82600
N36         N  0.49536598  0.21818664  0.00714995    -0.79900
O37         O  0.00858507  0.40885776  0.36982828    -0.88400
C38         C  0.07380264  0.06273097  0.28871979     1.11700
O39         O  0.48505981  0.44519314  0.33606603    -1.36200
O40         O  0.07856965  0.04428133  0.36946273    -0.89800
O41         O  0.45893053  0.38513309  0.37125682    -0.90500
O42         O  0.45406071  0.44663044  0.40018207    -0.79300
O43         O  0.04301772  0.47532197  0.36426576    -1.01400
C44         C  0.48918297  0.03398785  0.39011471     1.21700
O45         O  0.45498231  0.47728228  0.33567580    -1.36300
Mn46       Mn  0.48608117  0.47676588  0.30275497     1.82100
O47         O  0.48858724  0.01055149  0.39906034    -0.78400
O48         O  0.05498976  0.07049534  0.36576118    -0.87800
C49         C  0.48672489  0.03167563  0.27834812     1.12800
C50         C  0.07480132  0.06587158  0.37764488     1.07500
O51         O  0.45520860  0.44578230  0.27185796    -0.79300
O52         O  0.01861779  0.00890054  0.33445348    -1.33000
O53         O  0.42642683  0.41809113  0.30719260    -0.98600
C54         C  0.39990655  0.47812071  0.38014450     1.06200
Mn55       Mn  0.02131672  0.05127476  0.33273726     1.48600
O56         O  0.39459879  0.45315191  0.36906136    -0.87800
Mn57       Mn  0.44452181  0.40302010  0.33652613     1.49600
O58         O  0.00842158  0.40870571  0.30129678    -0.91600
C59         C  0.03917420  0.47546183  0.39159095     1.19400
C60         C  0.48335291  0.38857110  0.29163562     1.11500
Mn61       Mn  0.48585299  0.47694778  0.36897901     1.81000
O62         O  0.48741243  0.03643538  0.30561477    -0.96800
Mn63       Mn  0.02406821  0.44167826  0.33569007     1.49300
C64         C  0.48403619  0.38925496  0.38078118     1.08000
Mn65       Mn  0.45430234  0.01852286  0.33488141     1.49900
C66         C  0.39993150  0.47820749  0.29092681     1.10900
O67         O  0.42612195  0.41855005  0.36477279    -1.02600
O68         O  0.05303321  0.06738864  0.29757355    -0.92200
C69         C  0.43058272  0.42341769  0.39206742     1.22200
O70         O  0.48862174  0.03762058  0.36271164    -1.03000
O71         O  0.07890094  0.04347955  0.30118545    -0.90400
O72         O  0.42110245  0.00355306  0.30119819    -0.90000
O73         O  0.45869792  0.38421406  0.30276646    -0.90000
Mn74       Mn  0.06071914  0.01102289  0.33529391     1.47900
O75         O  0.48706474  0.00858983  0.27023851    -0.78500
C76         C  0.43165117  0.42263127  0.27992074     1.15300
O77         O  0.01626017  0.47588122  0.40032762    -0.77200
O78         O  0.01712589  0.47658592  0.27141790    -0.76800
Mn79       Mn  0.41211929  0.43763525  0.33541109     1.51100
O80         O  0.42212441  0.00419714  0.36977802    -0.89200
O81         O  0.04377743  0.47568137  0.30746933    -0.96700
O82         O  0.39508789  0.45289784  0.30066824    -0.91700
C83         C  0.04008694  0.47622121  0.28011749     1.13000
C84         C  0.48299849  0.11862136  0.50058431    -0.27800
C85         C  0.49722711  0.12611602  0.47193941     0.01800
C86         C  0.51098862  0.15616600  0.46190579     0.29900
C87         C  0.50899010  0.17765108  0.47951676    -0.19600
C88         C  0.49971677  0.17278586  0.00672212    -0.29000
C89         C  0.48771297  0.14329293  0.01814194     0.43900
C90         C  0.49549861  0.10225736  0.45153838     0.05100
O91         O  0.02148248  0.16388688  0.43199385    -0.57500
H92         H  0.01508154  0.19964730  0.46859988     0.18100
O93         O  0.47370965  0.13534644  0.04601982    -0.64200
H94         H  0.47196453  0.09562067  0.50858074     0.16500
C95         C  0.50321315  0.08101108  0.46158019     0.28800
C96         C  0.50064956  0.05852448  0.44163265    -0.25100
C97         C  0.49078118  0.05706633  0.41144177    -0.24400
C98         C  0.48340682  0.07864195  0.40142667     0.40200
C99         C  0.48542621  0.10057332  0.42147475    -0.26900
O100        O  0.51463848  0.08295019  0.49030979    -0.58700
H101        H  0.50706305  0.04264661  0.44960777     0.15800
O102        O  0.47445243  0.07877456  0.37192878    -0.60200
H103        H  0.47892037  0.11635916  0.41340812     0.14300
H104        H  0.45235799  0.12859456  0.04177938     0.46200
H105        H  0.50357118  0.06802522  0.00162615     0.41500
H106        H  0.45232015  0.06916601  0.37278352     0.45000
H107        H  0.04202121  0.16750165  0.43555475     0.36500
C108        C  0.47675594  0.30281784  0.49887382    -0.27800
C109        C  0.48289606  0.30424981  0.46756174     0.01800
C110        C  0.48948043  0.28336071  0.45460365     0.29900
C111        C  0.49036125  0.26167089  0.47293489    -0.19600
C112        C  0.48460093  0.26013578  0.50451975    -0.29000
C113        C  0.49740736  0.29077761  0.01504852     0.43900
C114        C  0.48327424  0.32795795  0.44831113     0.05100
O115        O  0.96426065  0.27004218  0.42662627    -0.57500
H116        H  0.96774037  0.23304810  0.46443184     0.18100
O117        O  0.50905008  0.29870489  0.04391295    -0.64200
H118        H  0.47169582  0.31890105  0.50902593     0.16500
C119        C  0.45665469  0.32765911  0.44080180     0.28800
C120        C  0.45726491  0.34826444  0.41948280    -0.25100
C121        C  0.48436312  0.36959364  0.40554342    -0.24400
C122        C  0.01003751  0.37213223  0.41786540     0.40200
C123        C  0.00873895  0.35142937  0.43945596    -0.26900
O124        O  0.42972474  0.30616012  0.45274679    -0.58700
H125        H  0.43631199  0.34698680  0.41333398     0.15800
O126        O  0.03762349  0.39395537  0.40754862    -0.60200
H127        H  0.02940626  0.35314281  0.44753070     0.14300
H128        H  0.49209069  0.29598124  0.05686853     0.46200
H129        H  0.42651959  0.31555757  0.47098356     0.41500
H130        H  0.04609679  0.40885627  0.42424775     0.45000
H131        H  0.94201699  0.25883572  0.42663861     0.36500
C132        C  0.47184332  0.06513666  0.20729098    -0.28600
C133        C  0.47924910  0.09371975  0.21801891     0.01800
C134        C  0.98627860  0.09960862  0.24769611     0.29900
C135        C  0.98977556  0.07978463  0.26658395    -0.19600
C136        C  0.48519838  0.05285827  0.25646428    -0.29000
C137        C  0.47479977  0.04475503  0.22625086     0.43900
C138        C  0.47546984  0.11504920  0.19829985     0.05100
O139        O  0.99328910  0.12720524  0.25887149    -0.57500
H140        H  0.99766510  0.08677739  0.28969700     0.18100
O141        O  0.46683645  0.01686416  0.21523043    -0.64200
H142        H  0.46317151  0.05838099  0.18437999     0.16500
C143        C  0.98738864  0.12250772  0.16983187     0.28800
C144        C  0.48866808  0.14685436  0.15321868    -0.25100
C145        C  0.47313501  0.16071529  0.16461095    -0.24400
C146        C  0.45747897  0.15041228  0.19249346     0.40200
C147        C  0.45876068  0.12783077  0.20903690    -0.26900
O148        O  0.00546188  0.11190269  0.15967305    -0.58700
H149        H  0.99921433  0.15337613  0.13248677     0.15800
O150        O  0.44110892  0.16240920  0.20404040    -0.60200
H151        H  0.44704598  0.12058986  0.23067733     0.14300
H152        H  0.44503795  0.00431317  0.21939907     0.46200
H153        H  0.99384122  0.09738497  0.14332681     0.41500
H154        H  0.42096587  0.15059741  0.19466626     0.45000
H155        H  0.01454411  0.14077896  0.25308576     0.36500
C156        C  0.45397999  0.27257930  0.20698680    -0.27800
C157        C  0.47479572  0.30276595  0.20068236     0.01800
C158        C  0.99150842  0.30781404  0.17537899     0.29900
C159        C  0.98997016  0.28458300  0.15737873    -0.19600
C160        C  0.47322515  0.25640774  0.16473396    -0.29000
C161        C  0.45326057  0.24951380  0.18945732     0.43900
C162        C  0.47740279  0.32646430  0.22187394     0.05100
O163        O  0.01122561  0.33702415  0.16745884    -0.57500
H164        H  0.00463161  0.29026315  0.13774135     0.18100
O165        O  0.43259882  0.22028370  0.19636516    -0.64200
H166        H  0.43887901  0.26679307  0.22626657     0.16500
C167        C  0.45249063  0.32959580  0.22893471     0.28800
C168        C  0.45489611  0.35019401  0.25118980    -0.25100
C169        C  0.48207354  0.36820064  0.26678582    -0.24400
C170        C  0.00676780  0.36561930  0.25804322     0.40200
C171        C  0.00397358  0.34462636  0.23604736    -0.26900
O172        O  0.42556633  0.31235571  0.21445856    -0.58700
H173        H  0.43526047  0.35187612  0.25636828     0.15800
O174        O  0.03423528  0.38341155  0.27126696    -0.60200
H175        H  0.02347253  0.34289567  0.23028950     0.14300
H176        H  0.44042063  0.21548822  0.21491648     0.46200
H177        H  0.42618463  0.32424949  0.19636763     0.41500
H178        H  0.03472847  0.37185659  0.28917311     0.45000
H179        H  0.99930769  0.34345482  0.15514338     0.36500
C180        C  0.36127367  0.50270660  0.43803137    -0.27800
C181        C  0.33758017  0.47495997  0.44792071     0.01800
C182        C  0.33577487  0.44842943  0.43708202     0.29900
C183        C  0.35668575  0.44988725  0.41581964    -0.19600
C184        C  0.37989417  0.47765301  0.40492651    -0.29000
C185        C  0.38245277  0.50425210  0.41700236     0.43900
C186        C  0.31391767  0.47393006  0.46803222     0.05100
O187        O  0.31324030  0.42088049  0.44666005    -0.57500
H188        H  0.35428558  0.42903158  0.40748756     0.18100
O189        O  0.40950502  0.03288525  0.41107566    -0.64200
H190        H  0.36774324  0.02481482  0.44951124     0.16500
C191        C  0.32105392  0.49039047  0.49542825     0.28800
C192        C  0.29793761  0.48678732  0.01510796    -0.25100
C193        C  0.26812609  0.47343787  0.50394526    -0.24400
C194        C  0.26101451  0.45666158  0.47669735     0.40200
C195        C  0.28378327  0.45698079  0.45910294    -0.26900
O196        O  0.34956788  0.50115258  0.00904866    -0.58700
H197        H  0.30347734  0.49812429  0.03695267     0.15800
O198        O  0.23558892  0.94883780  0.46220785    -0.60200
H199        H  0.28171961  0.95261588  0.43444646     0.14300
H200        H  0.42455112  0.03776278  0.42743699     0.46200
H201        H  0.35134721  0.48537369  0.02021841     0.41500
H202        H  0.23537951  0.96362803  0.44784030     0.45000
H203        H  0.32169601  0.41550888  0.46427251     0.36500
C204        C  0.11095222  0.48210454  0.42203533    -0.27800
C205        C  0.10312361  0.47234252  0.45222268     0.01800
C206        C  0.07433862  0.46450686  0.46296807     0.29900
C207        C  0.05380941  0.46643881  0.44341293    -0.19600
C208        C  0.06144748  0.47546337  0.41287108    -0.29000
C209        C  0.09045194  0.48344465  0.40234228     0.43900
C210        C  0.12554633  0.47069438  0.47194771     0.05100
O211        O  0.06581554  0.45418170  0.49222106    -0.57500
H212        H  0.03160334  0.45991111  0.45184356     0.18100
O213        O  0.10178382  0.99581953  0.37352519    -0.64200
H214        H  0.13519528  0.99119480  0.41474714     0.16500
C215        C  0.13949354  0.45458924  0.46249911     0.28800
C216        C  0.16288075  0.45578768  0.47973036    -0.25100
C217        C  0.17408040  0.47461850  0.00580719    -0.24400
C218        C  0.16012549  0.49070033  0.01560365     0.40200
C219        C  0.13488585  0.48727493  0.49908703    -0.26900
O220        O  0.12999607  0.43719737  0.43669308    -0.58700
H221        H  0.17334145  0.44328184  0.47198314     0.15800
O222        O  0.16787063  0.00411417  0.04230399    -0.60200
H223        H  0.12496049  0.99841037  0.00659463     0.14300
H224        H  0.11478630  0.01788909  0.37518464     0.46200
H225        H  0.14599451  0.44812000  0.42129137     0.41500
H226        H  0.18362131  0.02439336  0.03560900     0.45000
H227        H  0.05769175  0.43221856  0.49103930     0.36500
C228        C  0.30634280  0.50159828  0.21322036    -0.27800
C229        C  0.32031612  0.48598629  0.20282138     0.01800
C230        C  0.31258194  0.47215832  0.17397582     0.29900
C231        C  0.29087710  0.47383505  0.15611140    -0.19600
C232        C  0.27627193  0.48887461  0.16683630    -0.29000
C233        C  0.28442972  0.50300035  0.19566296     0.43900
C234        C  0.34227562  0.48373732  0.22284013     0.05100
O235        O  0.32587548  0.45670623  0.16319458    -0.57500
H236        H  0.28492985  0.46268628  0.13416886     0.18100
O237        O  0.27164923  0.51886988  0.20666770    -0.64200
H238        H  0.31205122  0.51230927  0.23539903     0.16500
C239        C  0.36831195  0.50965048  0.23277373     0.28800
C240        C  0.38740849  0.50732811  0.25390974    -0.25100
C241        C  0.38074694  0.47931993  0.26606630    -0.24400
C242        C  0.35504880  0.45322419  0.25517604     0.40200
C243        C  0.33611524  0.45564165  0.23380041    -0.26900
O244        O  0.38291460  0.03468460  0.21099221    -0.58700
H245        H  0.41311785  0.02538219  0.25296205     0.15800
O246        O  0.34739861  0.42534653  0.26615721    -0.60200
H247        H  0.31599488  0.43552966  0.22647683     0.14300
H248        H  0.25647565  0.50540717  0.22177798     0.46200
H249        H  0.38044817  0.04835942  0.22500325     0.41500
H250        H  0.35338107  0.41605614  0.24989389     0.45000
H251        H  0.34533426  0.47222358  0.15449348     0.36500
C252        C  0.12926210  0.47656679  0.17002223    -0.27800
C253        C  0.13485859  0.48841128  0.19969437     0.01800
C254        C  0.16441260  0.50227420  0.21110092     0.29900
C255        C  0.18730555  0.50269194  0.19368190    -0.19600
C256        C  0.18162162  0.49001926  0.16436104    -0.29000
C257        C  0.15232576  0.47741846  0.15231895     0.43900
C258        C  0.10964220  0.48453047  0.21939113     0.05100
O259        O  0.17380007  0.01875391  0.23833636    -0.57500
H260        H  0.20965413  0.51297049  0.20330131     0.18100
O261        O  0.14565467  0.46499759  0.12370775    -0.64200
H262        H  0.10669726  0.46562008  0.16089029     0.16500
C263        C  0.08823574  0.49198810  0.20922978     0.28800
C264        C  0.06492458  0.48813670  0.22870276    -0.25100
C265        C  0.06293872  0.47749562  0.25866794    -0.24400
C266        C  0.08423721  0.46973437  0.26859237     0.40200
C267        C  0.10697402  0.47297005  0.24896341    -0.26900
O268        O  0.09033023  0.50379130  0.18064287    -0.58700
H269        H  0.04902454  0.49449635  0.22069227     0.15800
O270        O  0.08352110  0.45953298  0.29772624    -0.60200
H271        H  0.12274713  0.46646114  0.25703711     0.14300
H272        H  0.13893903  0.44347931  0.12684200     0.46200
H273        H  0.10648311  0.02766297  0.18231839     0.41500
H274        H  0.07220245  0.43735596  0.29621432     0.45000
H275        H  0.17729434  0.03922626  0.23450329     0.36500
C276        C  0.36651733  0.35322070  0.42738415    -0.27800
C277        C  0.36288435  0.36395338  0.45544153     0.01800
C278        C  0.38257479  0.39403236  0.46345568     0.29900
C279        C  0.40520776  0.41314888  0.44305246    -0.19600
C280        C  0.40826170  0.40259779  0.41446186    -0.29000
C281        C  0.38880344  0.37221541  0.40691398     0.43900
C282        C  0.33831647  0.34308235  0.47580963     0.05100
O283        O  0.37957924  0.40499378  0.49090262    -0.57500
H284        H  0.41981418  0.43642662  0.44922710     0.18100
O285        O  0.39184475  0.36061126  0.37988518    -0.64200
H286        H  0.35186449  0.32992091  0.42127304     0.16500
C287        C  0.30827999  0.33024227  0.46640398     0.28800
C288        C  0.28543278  0.30697182  0.48341133    -0.25100
C289        C  0.29468620  0.29271761  0.00832644    -0.24400
C290        C  0.32214610  0.31001216  0.52010703     0.40200
C291        C  0.34496295  0.33337481  0.50305836    -0.26900
O292        O  0.30113112  0.34033089  0.44051460    -0.58700
H293        H  0.26249752  0.29705190  0.47547334     0.15800
O294        O  0.33210277  0.29699771  0.04475197    -0.60200
H295        H  0.36806197  0.34298269  0.51036707     0.14300
H296        H  0.37646740  0.36038256  0.36611594     0.46200
H297        H  0.29822863  0.32563262  0.42440994     0.41500
H298        H  0.33578901  0.28083087  0.03784739     0.45000
H299        H  0.36691455  0.40828748  0.98818873     0.36500
C300        C  0.16499367  0.18459822  0.45957296    -0.27800
C301        C  0.15361600  0.15417183  0.46648673     0.01800
C302        C  0.16347670  0.14650486  0.49322169     0.29900
C303        C  0.18502448  0.16902999  0.51201935    -0.19600
C304        C  0.19735602  0.19951222  0.50447892    -0.29000
C305        C  0.18662184  0.20714463  0.47826084     0.43900
C306        C  0.13259645  0.13068646  0.44496249     0.05100
O307        O  0.15255895  0.11700872  0.50091064    -0.57500
H308        H  0.19527225  0.16035496  0.03281249     0.18100
O309        O  0.19731894  0.23657573  0.47042995    -0.64200
H310        H  0.15763865  0.19091605  0.43913658     0.16500
C311        C  0.10541067  0.12875859  0.43627623     0.28800
C312        C  0.08664991  0.10721346  0.41495420    -0.25100
C313        C  0.09449989  0.08722067  0.40167240    -0.24400
C314        C  0.12178499  0.08921046  0.41058674     0.40200
C315        C  0.14034965  0.11058815  0.43215025    -0.26900
O316        O  0.09702751  0.14794495  0.44838978    -0.58700
H317        H  0.06590084  0.10634238  0.40870593     0.15800
O318        O  0.13103744  0.07095622  0.39791166    -0.60200
H319        H  0.16138163  0.11202101  0.43828864     0.14300
H320        H  0.18605477  0.23971874  0.98307194     0.46200
H321        H  0.08424565  0.13714510  0.46622186     0.41500
H322        H  0.14310748  0.08206403  0.37980196     0.45000
H323        H  0.13331753  0.11071583  0.51155764     0.36500
C324        C  0.33632348  0.30026216  0.21039627    -0.27800
C325        C  0.35005185  0.32944817  0.19845105     0.01800
C326        C  0.34312406  0.33394579  0.16852624     0.29900
C327        C  0.32162439  0.30955942  0.15159013    -0.19600
C328        C  0.30648468  0.28053621  0.16428370    -0.29000
C329        C  0.31473430  0.27595721  0.19367779     0.43900
C330        C  0.37051097  0.35489943  0.21812468     0.05100
O331        O  0.35635312  0.36218579  0.15607031    -0.57500
H332        H  0.31584039  0.31366143  0.12901657     0.18100
O333        O  0.30151125  0.24792427  0.20661707    -0.64200
H334        H  0.34205109  0.29635557  0.23308726     0.16500
C335        C  0.36087624  0.35854369  0.24703240     0.28800
C336        C  0.38092443  0.38114235  0.26650275    -0.25100
C337        C  0.41070676  0.40069038  0.25756664    -0.24400
C338        C  0.42008323  0.39779981  0.22814728     0.40200
C339        C  0.40001216  0.37493784  0.20869104    -0.26900
O340        O  0.33163060  0.34053866  0.25609547    -0.58700
H341        H  0.37307404  0.38332848  0.28877180     0.15800
O342        O  0.44894738  0.41656079  0.21848553    -0.60200
H343        H  0.40773796  0.37232378  0.18653491     0.14300
H344        H  0.31368536  0.23911477  0.19960763     0.46200
H345        H  0.33213656  0.32698513  0.27188517     0.41500
H346        H  0.46036340  0.40677907  0.22510177     0.45000
H347        H  0.34366911  0.37056358  0.16265033     0.36500
C348        C  0.18509717  0.16597935  0.21662954    -0.27800
C349        C  0.16094456  0.14224343  0.20167697     0.01800
C350        C  0.16072686  0.14063794  0.16971663     0.29900
C351        C  0.18464047  0.16305384  0.15292703    -0.19600
C352        C  0.20905151  0.18721938  0.16776647    -0.29000
C353        C  0.20895578  0.18843520  0.20009321     0.43900
C354        C  0.13642903  0.11920493  0.22018892     0.05100
O355        O  0.13718064  0.11740211  0.15474736    -0.57500
H356        H  0.18400937  0.16144703  0.12825846     0.18100
O357        O  0.23189308  0.21140785  0.21597904    -0.64200
H358        H  0.18533119  0.16718149  0.24134659     0.16500
C359        C  0.13978862  0.09674061  0.23449218     0.28800
C360        C  0.11843778  0.07761297  0.25561439    -0.25100
C361        C  0.09377790  0.08097282  0.26335683    -0.24400
C362        C  0.08981178  0.10276725  0.24772237     0.40200
C363        C  0.11120791  0.12176431  0.22640505    -0.26900
O364        O  0.16429878  0.09382944  0.22846951    -0.58700
H365        H  0.12193465  0.06084050  0.26674782     0.15800
O366        O  0.06587494  0.10658222  0.25385662    -0.60200
H367        H  0.10867330  0.13923712  0.21548650     0.14300
H368        H  0.22561758  0.22653509  0.21879299     0.46200
H369        H  0.17927047  0.10599818  0.24427092     0.41500
H370        H  0.05044210  0.09411696  0.23854979     0.45000
H371        H  0.14198850  0.10105197  0.15436936     0.36500
C372        C  0.23262681  0.20677812  0.64761028     0.80000
N373        N  0.23018360  0.21022105  0.61716965    -0.78300
C374        C  0.25120153  0.23527957  0.60255349     0.82500
N375        N  0.27436697  0.25721985  0.61866792    -0.78200
C376        C  0.27693672  0.25417212  0.64917900     0.82600
N377        N  0.25590856  0.22883501  0.66341762    -0.79900
C378        C  0.22233597  0.22287650  0.52301839     0.80000
N379        N  0.24392182  0.24839118  0.50939782    -0.78300
C380        C  0.26780913  0.26929338  0.52555021     0.82500
N381        N  0.26984233  0.26464592  0.55571261    -0.78200
C382        C  0.24846508  0.23941204  0.56973238     0.82600
N383        N  0.22483912  0.21837987  0.55328386    -0.79900
C384        C  0.25373521  0.49247437  0.64831736     0.80000
N385        N  0.25192489  0.48819721  0.61755869    -0.78300
C386        C  0.22855308  0.48675048  0.60168946     0.82500
N387        N  0.20670393  0.48888661  0.61678604    -0.78200
C388        C  0.20811179  0.49284076  0.64747713     0.82600
N389        N  0.23179316  0.49477361  0.66301525    -0.79900
C390        C  0.24462093  0.47505075  0.52186969     0.80000
N391        N  0.24758207  0.47995093  0.55253300    -0.78300
C392        C  0.22613066  0.48214915  0.56846770     0.82500
N393        N  0.20198092  0.47989540  0.55355967    -0.78200
C394        C  0.19892261  0.47517910  0.52299536     0.82600
N395        N  0.22025325  0.47267264  0.50739607    -0.79900
C396        C  0.47710731  0.23225002  0.65053514     0.80000
N397        N  0.47993900  0.23407527  0.61952044    -0.78300
C398        C  0.48084531  0.21191283  0.60350553     0.82500
N399        N  0.47904846  0.18804000  0.61854681    -0.78200
C400        C  0.47577681  0.18575048  0.64927404     0.82600
N401        N  0.47487709  0.20787803  0.66500365    -0.79900
C402        C  0.48586290  0.23649936  0.52295464     0.80000
N403        N  0.48320708  0.23549249  0.55389835    -0.78300
C404        C  0.48398872  0.21338263  0.57010030     0.82500
N405        N  0.48737631  0.19213323  0.55524153    -0.78200
C406        C  0.49030719  0.19303503  0.52440681     0.82600
N407        N  0.48955629  0.21526817  0.50857638    -0.79900
O408        O  0.01117369  0.41158804  0.86946726    -0.88400
C409        C  0.07475005  0.06155967  0.79019149     1.11700
O410        O  0.48565390  0.44596508  0.83546645    -1.36200
O411        O  0.07863699  0.04200776  0.87049048    -0.89800
O412        O  0.46032769  0.38592340  0.87021976    -0.90500
O413        O  0.45504611  0.44717408  0.89990400    -0.79300
O414        O  0.04463851  0.47809685  0.86366196    -1.01400
C415        C  0.48984640  0.03332497  0.89035271     1.21700
O416        O  0.45506727  0.47755113  0.83537126    -1.36300
Mn417      Mn  0.48594190  0.47702283  0.80199814     1.82100
O418        O  0.48873203  0.00966001  0.89936734    -0.78400
O419        O  0.05558557  0.06874821  0.86738088    -0.87800
C420        C  0.48777214  0.03083010  0.77864088     1.12800
C421        C  0.07513243  0.06363167  0.87910206     1.07500
O422        O  0.45456629  0.44542358  0.77121052    -0.79300
O423        O  0.01865562  0.00758957  0.83536562    -1.33000
O424        O  0.42663982  0.41854052  0.80727593    -0.98600
C425        C  0.40051183  0.47807945  0.88100589     1.06200
Mn426      Mn  0.02214059  0.05034267  0.83405886     1.48600
O427        O  0.39517642  0.45321631  0.86964364    -0.87800
Mn428      Mn  0.44536986  0.40373163  0.83602982     1.49600
O429        O  0.01069098  0.41128831  0.80113449    -0.91600
C430        C  0.04073898  0.47814111  0.89099308     1.19400
C431        C  0.48431731  0.39023537  0.79048817     1.11500
Mn432      Mn  0.48636772  0.47765599  0.86835581     1.81000
O433        O  0.48839061  0.03551254  0.80590211    -0.96800
Mn434      Mn  0.02592463  0.44424934  0.83527702     1.49300
C435        C  0.48541983  0.39014646  0.87988209     1.08000
Mn436      Mn  0.45510386  0.01805253  0.83496692     1.49900
C437        C  0.39921184  0.47819146  0.79178058     1.10900
O438        O  0.42708491  0.41902139  0.86459664    -1.02600
O439        O  0.05421553  0.06652724  0.79918154    -0.92200
C440        C  0.43179276  0.42369334  0.89186250     1.22200
O441        O  0.48935225  0.03687824  0.86292654    -1.03000
O442        O  0.07931615  0.04177204  0.80219880    -0.90400
O443        O  0.42206879  0.00349290  0.80115610    -0.90000
O444        O  0.45966791  0.38559454  0.80188435    -0.90000
Mn445      Mn  0.06045804  0.00909689  0.83607778     1.47900
O446        O  0.48771555  0.00756832  0.77047520    -0.78500
C447        C  0.43097263  0.42254114  0.77989618     1.15300
O448        O  0.01748038  0.47788429  0.89970495    -0.77200
O449        O  0.01756843  0.47769785  0.77065182    -0.76800
Mn450      Mn  0.41235424  0.43782782  0.83564435     1.51100
O451        O  0.42282953  0.00405721  0.86970637    -0.89200
O452        O  0.04473932  0.47808357  0.80685271    -0.96700
O453        O  0.39453470  0.45281860  0.80120117    -0.91700
C454        C  0.04099543  0.47827537  0.77947894     1.13000
C455        C  0.48882476  0.12123964  0.00040688    -0.27800
C456        C  0.50207882  0.12803091  0.97128546     0.01800
C457        C  0.51555365  0.15788595  0.96064893     0.29900
C458        C  0.51401798  0.17977426  0.97809493    -0.19600
C459        C  0.49392816  0.17003661  0.50771257    -0.29000
C460        C  0.48141124  0.14029671  0.51850294     0.43900
C461        C  0.49940556  0.10357084  0.95107018     0.05100
O462        O  0.03177132  0.16634691  0.93451411    -0.57500
H463        H  0.02442651  0.20221614  0.97032496     0.18100
O464        O  0.46651259  0.13180502  0.54589416    -0.64200
H465        H  0.47806718  0.09843393  0.00894335     0.16500
C466        C  0.50696095  0.08216950  0.96103661     0.28800
C467        C  0.50321364  0.05897569  0.94140021    -0.25100
C468        C  0.49229051  0.05690949  0.91156806    -0.24400
C469        C  0.48504934  0.07859682  0.90161899     0.40200
C470        C  0.48829471  0.10128036  0.92136488    -0.26900
O471        O  0.51938704  0.08461965  0.98933354    -0.58700
H472        H  0.50960028  0.04305027  0.94928502     0.15800
O473        O  0.47522564  0.07819106  0.87238307    -0.60200
H474        H  0.48189201  0.11715789  0.91334700     0.14300
H475        H  0.44538287  0.12550485  0.54101245     0.46200
H476        H  0.49848950  0.06599827  0.50194126     0.41500
H477        H  0.45347827  0.07095475  0.87418521     0.45000
H478        H  0.05218634  0.17003642  0.93907197     0.36500
C479        C  0.49552040  0.31208679  0.99669773    -0.27800
C480        C  0.48439193  0.30500955  0.96682041     0.01800
C481        C  0.47522966  0.27629727  0.95519822     0.29900
C482        C  0.47777324  0.25525341  0.97320133    -0.19600
C483        C  0.48884748  0.26214190  0.00319929    -0.29000
C484        C  0.47751789  0.28097309  0.51739245     0.43900
C485        C  0.48429210  0.32824852  0.94709141     0.05100
O486        O  0.99760114  0.28514433  0.92244636    -0.57500
H487        H  0.99844162  0.24720649  0.96054779     0.18100
O488        O  0.47164047  0.28054898  0.54797647    -0.64200
H489        H  0.50294146  0.33427713  0.00572122     0.16500
C490        C  0.45734303  0.32542385  0.93627131     0.28800
C491        C  0.45802748  0.34624812  0.91523785    -0.25100
C492        C  0.48547677  0.37014360  0.90447907    -0.24400
C493        C  0.01311899  0.37013045  0.91119895     0.40200
C494        C  0.01208120  0.34889701  0.93179498    -0.26900
O495        O  0.43023202  0.30195173  0.94555281    -0.58700
H496        H  0.43691414  0.34314836  0.90679865     0.15800
O497        O  0.03946995  0.38809597  0.89596664    -0.60200
H498        H  0.03208120  0.34739840  0.93534180     0.14300
H499        H  0.44955652  0.26777357  0.54987390     0.46200
H500        H  0.42492767  0.30920726  0.96415061     0.41500
H501        H  0.05098369  0.40567379  0.90945111     0.45000
H502        H  0.97771650  0.27355377  0.91249285     0.36500
C503        C  0.47581608  0.06564025  0.70704437    -0.28600
C504        C  0.48100810  0.09326470  0.71856100     0.01800
C505        C  0.99069794  0.10035576  0.74798033     0.29900
C506        C  0.99317065  0.08017163  0.76720228    -0.19600
C507        C  0.48661543  0.05223271  0.75688088    -0.29000
C508        C  0.47859557  0.04516115  0.72595543     0.43900
C509        C  0.47729448  0.11458556  0.69887498     0.05100
O510        O  0.99810430  0.12810066  0.75904988    -0.57500
H511        H  0.00055814  0.08696462  0.79047955     0.18100
O512        O  0.47291409  0.01822559  0.71409584    -0.64200
H513        H  0.46897247  0.05966236  0.68352114     0.16500
C514        C  0.99103253  0.12249389  0.66940595     0.28800
C515        C  0.49156278  0.14757910  0.65467929    -0.25100
C516        C  0.47471593  0.16014764  0.66562145    -0.24400
C517        C  0.45800329  0.14877634  0.69273196     0.40200
C518        C  0.45924572  0.12608526  0.70898823    -0.26900
O519        O  0.00816071  0.11109798  0.65843977    -0.58700
H520        H  0.00208854  0.15300234  0.63176118     0.15800
O521        O  0.44062983  0.15986640  0.70376039    -0.60200
H522        H  0.44652044  0.11783092  0.72997854     0.14300
H523        H  0.45110584  0.00444425  0.71718650     0.46200
H524        H  0.99588089  0.09680344  0.64219613     0.41500
H525        H  0.42105410  0.14819282  0.69325973     0.45000
H526        H  0.01950987  0.14133150  0.75359143     0.36500
C527        C  0.47769878  0.27973978  0.71760437    -0.27800
C528        C  0.47836062  0.30403828  0.70269314     0.01800
C529        C  0.97723817  0.30315777  0.67259689     0.29900
C530        C  0.97681738  0.27999879  0.65533947    -0.19600
C531        C  0.47726486  0.25683423  0.66870439    -0.29000
C532        C  0.47736303  0.25643381  0.70109565     0.43900
C533        C  0.47923409  0.32826774  0.72138700     0.05100
O534        O  0.97575385  0.32593120  0.65802283    -0.57500
H535        H  0.97475990  0.28039139  0.63075396     0.18100
O536        O  0.47712339  0.23344529  0.71713276    -0.64200
H537        H  0.47775214  0.27899384  0.74234199     0.16500
C538        C  0.45322134  0.32412294  0.73604223     0.28800
C539        C  0.45512169  0.34497726  0.75760465    -0.25100
C540        C  0.48294743  0.37021386  0.76523820    -0.24400
C541        C  0.01111541  0.36978249  0.75783272     0.40200
C542        C  0.00932052  0.34874913  0.73651244    -0.26900
O543        O  0.42600729  0.29901608  0.73040017    -0.58700
H544        H  0.43473630  0.34074842  0.76904344     0.15800
O545        O  0.03850240  0.38917345  0.77037803    -0.60200
H546        H  0.02943136  0.34815081  0.73069709     0.14300
H547        H  0.49852958  0.24016003  0.72105035     0.46200
H548        H  0.41669020  0.30507314  0.71417344     0.41500
H549        H  0.04038776  0.37836580  0.78822496     0.45000
H550        H  0.95404734  0.31840781  0.65518306     0.36500
C551        C  0.36311405  0.50186008  0.94117500    -0.27800
C552        C  0.33834589  0.47409755  0.94931928     0.01800
C553        C  0.33558596  0.44770184  0.93690278     0.29900
C554        C  0.35650892  0.44937906  0.91556797    -0.19600
C555        C  0.38067344  0.47724778  0.90615296    -0.29000
C556        C  0.38430609  0.50360510  0.92002424     0.43900
C557        C  0.31443854  0.47300961  0.96900316     0.05100
O558        O  0.31207240  0.42011610  0.94496085    -0.57500
H559        H  0.35328201  0.42864740  0.90590357     0.18100
O560        O  0.40693610  0.03315753  0.90698613    -0.64200
H561        H  0.36526876  0.02478190  0.94557711     0.16500
C562        C  0.32088588  0.48701175  0.99777356     0.28800
C563        C  0.29824971  0.48995200  0.51320484    -0.25100
C564        C  0.26835051  0.47286938  0.00406133    -0.24400
C565        C  0.26190981  0.45837168  0.97543579     0.40200
C566        C  0.28482304  0.45851377  0.95828164    -0.26900
O567        O  0.35026105  0.50718073  0.50489973    -0.58700
H568        H  0.30425680  0.50315598  0.53392081     0.15800
O569        O  0.23439454  0.94091885  0.96588852    -0.60200
H570        H  0.28088619  0.94619553  0.93723700     0.14300
H571        H  0.42278299  0.03993693  0.92279492     0.46200
H572        H  0.35382957  0.49347571  0.51782799     0.41500
H573        H  0.23187463  0.95296176  0.94971352     0.45000
H574        H  0.31927662  0.41376513  0.96288722     0.36500
C575        C  0.11286820  0.48564486  0.92167025    -0.27800
C576        C  0.10483340  0.47516538  0.95163169     0.01800
C577        C  0.07582116  0.46664544  0.96220137     0.29900
C578        C  0.05522555  0.46849192  0.94265764    -0.19600
C579        C  0.06309625  0.47832318  0.91233918    -0.29000
C580        C  0.09237367  0.48712423  0.90203943     0.43900
C581        C  0.12719969  0.47328099  0.97125484     0.05100
O582        O  0.06719144  0.45585237  0.99130188    -0.57500
H583        H  0.03283418  0.46138259  0.95093608     0.18100
O584        O  0.10049414  0.99303854  0.87273248    -0.64200
H585        H  0.13457089  0.98899062  0.91353040     0.16500
C586        C  0.14075745  0.45683534  0.96173528     0.28800
C587        C  0.16393680  0.45755978  0.97895944    -0.25100
C588        C  0.17285477  0.47299044  0.50649583    -0.24400
C589        C  0.15841513  0.48860343  0.51629922     0.40200
C590        C  0.13678679  0.48983241  0.99840239    -0.26900
O591        O  0.13103495  0.43952310  0.93589168    -0.58700
H592        H  0.17404519  0.44472963  0.97119819     0.15800
O593        O  0.16650399  0.00416753  0.54389872    -0.60200
H594        H  0.12361560  0.99828065  0.50794010     0.14300
H595        H  0.11428711  0.01499591  0.87382191     0.46200
H596        H  0.14679260  0.45062122  0.92031978     0.41500
H597        H  0.18184559  0.02475357  0.53756984     0.45000
H598        H  0.06001904  0.43407738  0.98994212     0.36500
C599        C  0.31082109  0.50852722  0.71075458    -0.27800
C600        C  0.32055338  0.48825993  0.70362570     0.01800
C601        C  0.30936868  0.47057074  0.67711323     0.29900
C602        C  0.28847843  0.47295117  0.65858794    -0.19600
C603        C  0.27815752  0.49263709  0.66624293    -0.29000
C604        C  0.28983512  0.51078757  0.69237499     0.43900
C605        C  0.34177912  0.48537396  0.72443607     0.05100
O606        O  0.31843771  0.45063051  0.66928334    -0.57500
H607        H  0.27963911  0.45868249  0.63869661     0.18100
O608        O  0.28138010  0.53131749  0.69976680    -0.64200
H609        H  0.31900646  0.52223391  0.73107960     0.16500
C610        C  0.36867332  0.51079532  0.73371928     0.28800
C611        C  0.38747634  0.50783339  0.75473933    -0.25100
C612        C  0.37992151  0.47971226  0.76728890    -0.24400
C613        C  0.35342751  0.45409228  0.75711114     0.40200
C614        C  0.33457664  0.45712686  0.73609685    -0.26900
O615        O  0.38443643  0.03671009  0.71233148    -0.58700
H616        H  0.41440313  0.02627992  0.75363385     0.15800
O617        O  0.34505830  0.42610877  0.76830979    -0.60200
H618        H  0.31384435  0.43733998  0.72942568     0.14300
H619        H  0.26659611  0.52193887  0.71654505     0.46200
H620        H  0.38158694  0.04988432  0.72671458     0.41500
H621        H  0.35097085  0.41652356  0.75229025     0.45000
H622        H  0.33707764  0.46248605  0.65726758     0.36500
C623        C  0.13078953  0.47850650  0.67066971    -0.27800
C624        C  0.13673276  0.49197311  0.69957480     0.01800
C625        C  0.16655180  0.50732841  0.71027712     0.29900
C626        C  0.18952844  0.50786592  0.69284459    -0.19600
C627        C  0.18353939  0.49367786  0.66427011    -0.29000
C628        C  0.15383746  0.47928719  0.65302858     0.43900
C629        C  0.11157973  0.48810660  0.71931620     0.05100
O630        O  0.17401238  0.01671850  0.74127011    -0.57500
H631        H  0.21215237  0.51936314  0.70185266     0.18100
O632        O  0.14677070  0.46494159  0.62536556    -0.64200
H633        H  0.10798721  0.46634773  0.66218479     0.16500
C634        C  0.08974961  0.49484142  0.70888340     0.28800
C635        C  0.06614966  0.49053948  0.72817372    -0.25100
C636        C  0.06428685  0.48014710  0.75822933    -0.24400
C637        C  0.08619041  0.47333003  0.76849945     0.40200
C638        C  0.10926320  0.47707458  0.74906058    -0.26900
O639        O  0.09169023  0.50634005  0.68016957    -0.58700
H640        H  0.04988524  0.49631184  0.71993847     0.15800
O641        O  0.08574678  0.46359958  0.79779324    -0.60200
H642        H  0.12552764  0.47132052  0.75736641     0.14300
H643        H  0.14166624  0.44405754  0.62994492     0.46200
H644        H  0.10521296  0.02905093  0.68436732     0.41500
H645        H  0.07501133  0.44141436  0.79655276     0.45000
H646        H  0.17899298  0.03786893  0.73909100     0.36500
C647        C  0.36957948  0.35182646  0.92640589    -0.27800
C648        C  0.36574811  0.36162776  0.95490982     0.01800
C649        C  0.38496098  0.39161673  0.96361896     0.29900
C650        C  0.40718279  0.41161373  0.94335429    -0.19600
C651        C  0.41019993  0.40203499  0.91421300    -0.29000
C652        C  0.39133987  0.37169609  0.90604590     0.43900
C653        C  0.34109396  0.34004452  0.97473016     0.05100
O654        O  0.38174346  0.40169468  0.99151095    -0.57500
H655        H  0.42137701  0.43481466  0.95002917     0.18100
O656        O  0.39432323  0.36102608  0.87838842    -0.64200
H657        H  0.35531961  0.32861673  0.91974957     0.16500
C658        C  0.31116958  0.32681930  0.96479808     0.28800
C659        C  0.28824188  0.30337840  0.98153945    -0.25100
C660        C  0.29206815  0.29608333  0.50994264    -0.24400
C661        C  0.32466989  0.30677858  0.01882951     0.40200
C662        C  0.34756605  0.33032017  0.00205741    -0.26900
O663        O  0.30418965  0.33684990  0.93875552    -0.58700
H664        H  0.26538146  0.29332016  0.97333661     0.15800
O665        O  0.32976353  0.30014344  0.54583871    -0.60200
H666        H  0.37058248  0.34017087  0.00972685     0.14300
H667        H  0.37845343  0.36058822  0.86524144     0.46200
H668        H  0.30139339  0.32212009  0.92273280     0.41500
H669        H  0.33368758  0.28420331  0.53868777     0.45000
H670        H  0.36617291  0.41316848  0.48671926     0.36500
C671        C  0.16600910  0.18137226  0.96075930    -0.27800
C672        C  0.15485187  0.15103536  0.96795588     0.01800
C673        C  0.16527734  0.14370848  0.99451706     0.29900
C674        C  0.18704697  0.16649961  0.01291369    -0.19600
C675        C  0.19904004  0.19686492  0.00508338    -0.29000
C676        C  0.18783811  0.20415250  0.97903452     0.43900
C677        C  0.13335583  0.12736764  0.94688976     0.05100
O678        O  0.15469769  0.11432105  0.00243054    -0.57500
H679        H  0.19280119  0.16256474  0.53203502     0.18100
O680        O  0.19825504  0.23348673  0.97100055    -0.64200
H681        H  0.15828560  0.18744509  0.94042465     0.16500
C682        C  0.10644960  0.12603320  0.93815921     0.28800
C683        C  0.08752250  0.10478786  0.91673194    -0.25100
C684        C  0.09486087  0.08443543  0.90344048    -0.24400
C685        C  0.12169132  0.08557507  0.91265102     0.40200
C686        C  0.14049143  0.10674546  0.93425646    -0.26900
O687        O  0.09856837  0.14561635  0.95023538    -0.58700
H688        H  0.06708906  0.10450445  0.91034349     0.15800
O689        O  0.13028790  0.06670316  0.90021923    -0.60200
H690        H  0.16127217  0.10766626  0.94046601     0.14300
H691        H  0.18514929  0.24286247  0.48246859     0.46200
H692        H  0.08555862  0.13493314  0.96796920     0.41500
H693        H  0.14299825  0.07773263  0.88241976     0.45000
H694        H  0.13556048  0.10796048  0.01332029     0.36500
C695        C  0.32960023  0.29931783  0.71406562    -0.27800
C696        C  0.34409171  0.32843994  0.70183564     0.01800
C697        C  0.33740993  0.33280792  0.67175734     0.29900
C698        C  0.31624736  0.30836659  0.65461170    -0.19600
C699        C  0.30102793  0.27922884  0.66710327    -0.29000
C700        C  0.30829910  0.27490040  0.69710214     0.43900
C701        C  0.36592287  0.35394605  0.72086726     0.05100
O702        O  0.35089952  0.36098326  0.65912920    -0.57500
H703        H  0.31116301  0.31248430  0.63172830     0.18100
O704        O  0.29471423  0.24698134  0.71029093    -0.64200
H705        H  0.33490009  0.29543755  0.73695693     0.16500
C706        C  0.35785860  0.35871506  0.75013281     0.28800
C707        C  0.37916334  0.38159710  0.76860166    -0.25100
C708        C  0.40876929  0.40026899  0.75842918    -0.24400
C709        C  0.41666808  0.39603668  0.72882390     0.40200
C710        C  0.39530269  0.37301103  0.71030167    -0.26900
O711        O  0.32893706  0.34163063  0.76051629    -0.58700
H712        H  0.37242112  0.38468665  0.79110721     0.15800
O713        O  0.44534484  0.41359918  0.71808746    -0.60200
H714        H  0.40193744  0.36950024  0.68792968     0.14300
H715        H  0.30728844  0.23826548  0.70442862     0.46200
H716        H  0.32970926  0.32838657  0.77650632     0.41500
H717        H  0.45614241  0.40304018  0.72424473     0.45000
H718        H  0.33831946  0.36954898  0.66548865     0.36500
C719        C  0.19143289  0.14625883  0.70710980    -0.27800
C720        C  0.16149814  0.13647704  0.69951277     0.01800
C721        C  0.15511532  0.14805604  0.67329123     0.29900
C722        C  0.17856598  0.16991225  0.65565461    -0.19600
C723        C  0.20856619  0.18084883  0.66410829    -0.29000
C724        C  0.21492509  0.16845124  0.68975712     0.43900
C725        C  0.13733413  0.11586455  0.72036599     0.05100
O726        O  0.12604515  0.13880305  0.66525642    -0.57500
H727        H  0.17324128  0.17926394  0.63608362     0.18100
O728        O  0.24399503  0.17766819  0.69782683    -0.64200
H729        H  0.19664322  0.13751083  0.72725336     0.16500
C730        C  0.13387585  0.08789008  0.72827773     0.28800
C731        C  0.11269158  0.07004131  0.75026735    -0.25100
C732        C  0.09482627  0.07978911  0.76492949    -0.24400
C733        C  0.09768381  0.10746981  0.75612180     0.40200
C734        C  0.11890371  0.12526342  0.73410427    -0.26900
O735        O  0.15091204  0.07773621  0.71436220    -0.58700
H736        H  0.11071137  0.04872506  0.75622749     0.15800
O737        O  0.08117925  0.11822532  0.77003889    -0.60200
H738        H  0.12166637  0.14697885  0.72844492     0.14300
H739        H  0.24764913  0.18951366  0.71676709     0.46200
H740        H  0.16590277  0.07989275  0.72982954     0.41500
H741        H  0.06372460  0.11236642  0.75643854     0.45000
H742        H  0.11933613  0.12021040  0.65327717     0.36500
C743        C  0.23344296  0.71135798  0.15032207     0.80000
N744        N  0.23066677  0.71272101  0.11952375    -0.78300
C745        C  0.25246400  0.73593583  0.10318703     0.82500
N746        N  0.27699943  0.75783340  0.11778336    -0.78200
C747        C  0.28017784  0.75653293  0.14841377     0.82600
N748        N  0.25824894  0.73329058  0.16438591    -0.79900
C749        C  0.22200643  0.72130674  0.02411667     0.80000
N750        N  0.24416748  0.74568445  0.00941155    -0.78300
C751        C  0.26895913  0.76632283  0.02465791     0.82500
N752        N  0.27123255  0.76260337  0.05498372    -0.78200
C753        C  0.24930517  0.73856177  0.07010280     0.82600
N754        N  0.22476717  0.71770043  0.05456899    -0.79900
C755        C  0.25488807  0.99137993  0.14764333     0.80000
N756        N  0.25314815  0.98758925  0.11683164    -0.78300
C757        C  0.22978010  0.98624812  0.10109800     0.82500
N758        N  0.20784354  0.98808811  0.11636058    -0.78200
C759        C  0.20914946  0.99160888  0.14711977     0.82600
N760        N  0.23284382  0.99338028  0.16255330    -0.79900
C761        C  0.24631265  0.97553744  0.02115710     0.80000
N762        N  0.24917069  0.98029096  0.05183799    -0.78300
C763        C  0.22742755  0.98188185  0.06785934     0.82500
N764        N  0.20304468  0.97912979  0.05303452    -0.78200
C765        C  0.20004788  0.97453199  0.02245154     0.82600
N766        N  0.22169783  0.97265504  0.00674369    -0.79900
C767        C  0.47050455  0.72930580  0.14941681     0.80000
N768        N  0.47553073  0.73185071  0.11872559    -0.78300
C769        C  0.47735238  0.70999356  0.10319451     0.82500
N770        N  0.47456621  0.68583070  0.11849642    -0.78200
C771        C  0.46947149  0.68292721  0.14901804     0.82600
N772        N  0.46750612  0.70476434  0.16433510    -0.79900
C773        C  0.48535930  0.73543217  0.02269378     0.80000
N774        N  0.48165682  0.73410242  0.05350878    -0.78300
C775        C  0.48222646  0.71205010  0.06999759     0.82500
N776        N  0.48646801  0.69116861  0.05553741    -0.78200
C777        C  0.49043202  0.69234193  0.02481350     0.82600
N778        N  0.48977673  0.71450082  0.00861702    -0.79900
O779        O  0.01129098  0.91022261  0.36870204    -0.88400
C780        C  0.07342569  0.56176065  0.29013988     1.11700
O781        O  0.48668766  0.94656513  0.33545365    -1.36200
O782        O  0.07734866  0.54218368  0.37064250    -0.89800
O783        O  0.46092939  0.88639937  0.37016960    -0.90500
O784        O  0.45564350  0.94777803  0.39982444    -0.79300
O785        O  0.04524507  0.97702446  0.36358377    -1.01400
C786        C  0.48779253  0.53242404  0.39116865     1.21700
O787        O  0.45623386  0.97838133  0.33502391    -1.36300
Mn788      Mn  0.48736883  0.97794296  0.30205887     1.82100
O789        O  0.48719800  0.50895092  0.39988475    -0.78400
O790        O  0.05403437  0.56866561  0.36792302    -0.87800
C791        C  0.48573734  0.53065540  0.27933938     1.12800
C792        C  0.07359602  0.56355097  0.37963029     1.07500
O793        O  0.45651087  0.94680321  0.27121696    -0.79300
O794        O  0.01738166  0.50769508  0.33554095    -1.33000
O795        O  0.42773877  0.91921535  0.30662854    -0.98600
C796        C  0.40147271  0.97916354  0.38007179     1.06200
Mn797      Mn  0.02072838  0.55033315  0.33438439     1.48600
O798        O  0.39631871  0.95414096  0.36924965    -0.87800
Mn799      Mn  0.44628539  0.90438204  0.33577942     1.49600
O800        O  0.01073322  0.91037110  0.30020070    -0.91600
C801        C  0.04113079  0.97712201  0.39090463     1.19400
C802        C  0.48498114  0.89000097  0.29082024     1.11500
Mn803      Mn  0.48726383  0.97832251  0.36837886     1.81000
O804        O  0.48656000  0.53547078  0.30662394    -0.96800
Mn805      Mn  0.02635495  0.94332462  0.33479858     1.49300
C806        C  0.48590558  0.89023988  0.37976378     1.08000
Mn807      Mn  0.45333282  0.51756612  0.33575514     1.49900
C808        C  0.40063234  0.97865864  0.29059672     1.10900
O809        O  0.42818371  0.91991184  0.36414903    -1.02600
O810        O  0.05290215  0.56663169  0.29946391    -0.92200
C811        C  0.43254148  0.92428767  0.39147727     1.22200
O812        O  0.48749586  0.53635052  0.36378647    -1.03000
O813        O  0.07809425  0.54198138  0.30205401    -0.90400
O814        O  0.42022998  0.50292337  0.30203595    -0.90000
O815        O  0.46044536  0.88584881  0.30200457    -0.90000
Mn816      Mn  0.05922850  0.50931566  0.33615195     1.47900
O817        O  0.48609977  0.50760456  0.27116360    -0.78500
C818        C  0.43285066  0.92377311  0.27932234     1.15300
O819        O  0.01818016  0.97762414  0.39941566    -0.77200
O820        O  0.01890054  0.97781308  0.27044622    -0.76800
Mn821      Mn  0.41351748  0.93863992  0.33518263     1.51100
O822        O  0.42099550  0.50317189  0.37041594    -0.89200
O823        O  0.04568117  0.97738104  0.30663414    -0.96700
O824        O  0.39576709  0.95348343  0.30077477    -0.91700
C825        C  0.04204318  0.97780852  0.27923821     1.13000
C826        C  0.48186386  0.61759593  0.50178705    -0.27800
C827        C  0.49661156  0.62453479  0.47344584     0.01800
C828        C  0.51171862  0.65462190  0.46337460     0.29900
C829        C  0.51025673  0.67671199  0.48045049    -0.19600
C830        C  0.49461480  0.66939174  0.00866217    -0.29000
C831        C  0.48241077  0.63979736  0.01987709     0.43900
C832        C  0.49398612  0.60019752  0.45320867     0.05100
O833        O  0.02914963  0.66355938  0.43653005    -0.57500
H834        H  0.02255243  0.70008796  0.47198369     0.18100
O835        O  0.46767464  0.63153887  0.04736775    -0.64200
H836        H  0.46991569  0.59461344  0.50985190     0.16500
C837        C  0.50051076  0.57814504  0.46339689     0.28800
C838        C  0.49792556  0.55578690  0.44324359    -0.25100
C839        C  0.48901919  0.55513831  0.41278240    -0.24400
C840        C  0.48223266  0.57714150  0.40283207     0.40200
C841        C  0.48446233  0.59906446  0.42300973    -0.26900
O842        O  0.51086061  0.57916770  0.49247511    -0.58700
H843        H  0.50361072  0.53938953  0.45128338     0.15800
O844        O  0.47385239  0.57782212  0.37321923    -0.60200
H845        H  0.47870897  0.61539640  0.41489382     0.14300
H846        H  0.44632388  0.62417821  0.04244904     0.46200
H847        H  0.49840162  0.56420158  0.00290287     0.41500
H848        H  0.45179406  0.56908917  0.37380803     0.45000
H849        H  0.04860267  0.66503606  0.44151367     0.36500
C850        C  0.48982768  0.80922757  0.49735842    -0.27800
C851        C  0.48391709  0.80408313  0.46605059     0.01800
C852        C  0.47877017  0.77692086  0.45338895     0.29900
C853        C  0.48001233  0.75544037  0.47188366    -0.19600
C854        C  0.48589543  0.76030348  0.50338239    -0.29000
C855        C  0.48873228  0.78603798  0.01696608     0.43900
C856        C  0.48412797  0.82746860  0.44633206     0.05100
O857        O  0.97600055  0.77226005  0.42176656    -0.57500
H858        H  0.97825674  0.73531108  0.46059935     0.18100
O859        O  0.49584754  0.79234062  0.04724350    -0.64200
H860        H  0.49397452  0.83020774  0.50725175     0.16500
C861        C  0.45732491  0.82424571  0.43459631     0.28800
C862        C  0.45819447  0.84534444  0.41381942    -0.25100
C863        C  0.48571558  0.86987403  0.40411907    -0.24400
C864        C  0.01284885  0.87322355  0.41659509     0.40200
C865        C  0.01169494  0.85196578  0.43739564    -0.26900
O866        O  0.43020013  0.80002322  0.44260266    -0.58700
H867        H  0.43719350  0.84194139  0.40468628     0.15800
O868        O  0.04036601  0.89646655  0.40789999    -0.60200
H869        H  0.03241735  0.85446895  0.44635717     0.14300
H870        H  0.47669644  0.78718862  0.05749414     0.46200
H871        H  0.42408224  0.80622574  0.46140167     0.41500
H872        H  0.04832582  0.90958530  0.42602672     0.45000
H873        H  0.95396315  0.76074019  0.41876515     0.36500
C874        C  0.47042127  0.56316101  0.20783867    -0.28600
C875        C  0.47522089  0.59079533  0.21893359     0.01800
C876        C  0.98516033  0.59909362  0.24969629     0.29900
C877        C  0.98854021  0.57919759  0.26854350    -0.19600
C878        C  0.48331241  0.55133112  0.25748331    -0.29000
C879        C  0.47447476  0.54350344  0.22682579     0.43900
C880        C  0.47077034  0.61157109  0.19897246     0.05100
O881        O  0.99073747  0.62605880  0.26142741    -0.57500
H882        H  0.99518976  0.58563082  0.29204669     0.18100
O883        O  0.46930056  0.51662546  0.21527908    -0.64200
H884        H  0.46299866  0.55655167  0.18455664     0.16500
C885        C  0.98825759  0.62314646  0.17164899     0.28800
C886        C  0.48398831  0.64369906  0.15413952    -0.25100
C887        C  0.46805320  0.65711649  0.16554164    -0.24400
C888        C  0.45197986  0.64628078  0.19309473     0.40200
C889        C  0.45332820  0.62365448  0.20944924    -0.26900
O890        O  0.00703802  0.61325358  0.16186316    -0.58700
H891        H  0.00004965  0.65420211  0.13446914     0.15800
O892        O  0.43519328  0.65786057  0.20452367    -0.60200
H893        H  0.44122375  0.61597067  0.23084215     0.14300
H894        H  0.44760869  0.50249761  0.21864475     0.46200
H895        H  0.99615738  0.59911736  0.14499165     0.41500
H896        H  0.41510092  0.64574322  0.19512957     0.45000
H897        H  0.01210122  0.64033921  0.25665813     0.36500
C898        C  0.45473683  0.77141561  0.21123199    -0.27800
C899        C  0.47326591  0.80131755  0.20209575     0.01800
C900        C  0.98820254  0.80701517  0.17412141     0.29900
C901        C  0.98640537  0.78346238  0.15654399    -0.19600
C902        C  0.46997463  0.75376272  0.16684919    -0.29000
C903        C  0.45321171  0.74777832  0.19407507     0.43900
C904        C  0.47675128  0.82588200  0.22241621     0.05100
O905        O  0.00538039  0.83597513  0.16394052    -0.57500
H906        H  0.99889579  0.78873544  0.13534824     0.18100
O907        O  0.43484132  0.71887114  0.20388915    -0.64200
H908        H  0.44205766  0.76640181  0.23229169     0.16500
C909        C  0.45200586  0.82889984  0.23040842     0.28800
C910        C  0.45527143  0.85035691  0.25198228    -0.25100
C911        C  0.48312661  0.86924464  0.26609940    -0.24400
C912        C  0.00823223  0.86707184  0.25633198     0.40200
C913        C  0.00475386  0.84563774  0.23457061    -0.26900
O914        O  0.42438574  0.81055608  0.21767027    -0.58700
H915        H  0.43568938  0.85186712  0.25792948     0.15800
O916        O  0.03615827  0.88543575  0.26835081    -0.60200
H917        H  0.02412859  0.84404881  0.22788572     0.14300
H918        H  0.44588862  0.71590158  0.22080028     0.46200
H919        H  0.42232735  0.82270577  0.20128174     0.41500
H920        H  0.03759208  0.87435732  0.28620883     0.45000
H921        H  0.99118247  0.84057555  0.15332140     0.36500
C922        C  0.36494945  0.00410497  0.44023583    -0.27800
C923        C  0.34000720  0.97658583  0.44859970     0.01800
C924        C  0.33676943  0.94994948  0.43630525     0.29900
C925        C  0.35743235  0.95114402  0.41487770    -0.19600
C926        C  0.38177691  0.97877517  0.40520793    -0.29000
C927        C  0.38582925  0.00538407  0.41892114     0.43900
C928        C  0.31626046  0.97597819  0.46817630     0.05100
O929        O  0.31300025  0.92260130  0.44455469    -0.57500
H930        H  0.35385389  0.93024451  0.40532020     0.18100
O931        O  0.40485495  0.53194368  0.40772451    -0.64200
H932        H  0.36291401  0.52335803  0.44596946     0.16500
C933        C  0.32257473  0.98908478  0.49737722     0.28800
C934        C  0.30014513  0.99088584  0.01295987    -0.25100
C935        C  0.27023016  0.97597886  0.50336137    -0.24400
C936        C  0.26404077  0.96265418  0.47409524     0.40200
C937        C  0.28689858  0.96268204  0.45694319    -0.26900
O938        O  0.35227737  0.00816420  0.00537826    -0.58700
H939        H  0.30585392  0.00377452  0.03387382     0.15800
O940        O  0.23180241  0.43924904  0.46739770    -0.60200
H941        H  0.27787027  0.44435007  0.43800669     0.14300
H942        H  0.42033731  0.53857327  0.42391268     0.46200
H943        H  0.35603429  0.99395342  0.01717766     0.41500
H944        H  0.22901810  0.45093839  0.45101631     0.45000
H945        H  0.32011241  0.91615563  0.46248559     0.36500
C946        C  0.11265318  0.98392671  0.42266933    -0.27800
C947        C  0.10405326  0.97280876  0.45238361     0.01800
C948        C  0.07483575  0.96414247  0.46243171     0.29900
C949        C  0.05467439  0.96653914  0.44266793    -0.19600
C950        C  0.06309710  0.97688557  0.41256043    -0.29000
C951        C  0.09253793  0.98579622  0.40277192     0.43900
C952        C  0.12617926  0.97076018  0.47236233     0.05100
O953        O  0.06550028  0.95245311  0.49113052    -0.57500
H954        H  0.03212128  0.95926671  0.45053530     0.18100
O955        O  0.09886085  0.49193702  0.37257991    -0.64200
H956        H  0.13316470  0.48867019  0.41357419     0.16500
C957        C  0.14095624  0.95559395  0.46246298     0.28800
C958        C  0.16439811  0.95692613  0.47975840    -0.25100
C959        C  0.17381741  0.97207331  0.00604835    -0.24400
C960        C  0.15895053  0.98714506  0.01623692     0.40200
C961        C  0.13456384  0.98623820  0.50020356    -0.26900
O962        O  0.13230276  0.93907075  0.43605984    -0.58700
H963        H  0.17555962  0.94525447  0.47153449     0.15800
O964        O  0.16976763  0.50817746  0.04130469    -0.60200
H965        H  0.12684522  0.50295229  0.00571416     0.14300
H966        H  0.11193484  0.51405216  0.37301865     0.46200
H967        H  0.14850247  0.95078791  0.42108270     0.41500
H968        H  0.18590466  0.52809982  0.03418249     0.45000
H969        H  0.05764393  0.93060590  0.48894524     0.36500
C970        C  0.31223994  0.00637165  0.20962713    -0.27800
C971        C  0.32268790  0.98706358  0.20106633     0.01800
C972        C  0.31200545  0.97039218  0.17397069     0.29900
C973        C  0.29074871  0.97281721  0.15610167    -0.19600
C974        C  0.27944275  0.99136641  0.16522431    -0.29000
C975        C  0.29062451  0.00842552  0.19213036     0.43900
C976        C  0.34390454  0.98388370  0.22134336     0.05100
O977        O  0.32182906  0.95132363  0.16505275    -0.57500
H978        H  0.28236848  0.95940718  0.13559776     0.18100
O979        O  0.28105728  0.02767668  0.20118326    -0.64200
H980        H  0.32038521  0.01940422  0.23039417     0.16500
C981        C  0.37267011  0.00839068  0.22696488     0.28800
C982        C  0.39119447  0.00602534  0.24881652    -0.25100
C983        C  0.38144093  0.97936380  0.26558942    -0.24400
C984        C  0.35293053  0.95439728  0.25898363     0.40200
C985        C  0.33444379  0.95686465  0.23707282    -0.26900
O986        O  0.37539196  0.53735406  0.22168006    -0.58700
H987        H  0.40719535  0.52774184  0.26124991     0.15800
O988        O  0.34210321  0.92807008  0.27501566    -0.60200
H989        H  0.31219948  0.93791776  0.23310132     0.14300
H990        H  0.26621251  0.01692611  0.21762494     0.46200
H991        H  0.37004585  0.54690926  0.23823040     0.41500
H992        H  0.34553925  0.91463765  0.26159024     0.45000
H993        H  0.34085206  0.96412939  0.15391739     0.36500
C994        C  0.13173195  0.97751118  0.16999580    -0.27800
C995        C  0.13741429  0.99032318  0.19921782     0.01800
C996        C  0.16710692  0.00509157  0.21031234     0.29900
C997        C  0.19017489  0.00570166  0.19294478    -0.19600
C998        C  0.18444734  0.99219511  0.16402399    -0.29000
C999        C  0.15488005  0.97837770  0.15241656     0.43900
C1000       C  0.11214032  0.98647847  0.21883830     0.05100
O1001       O  0.17114460  0.51519902  0.23949041    -0.57500
H1002       H  0.21267719  0.01677518  0.20225762     0.18100
O1003       O  0.14803144  0.96472596  0.12438935    -0.64200
H1004       H  0.10904454  0.96581903  0.16116834     0.16500
C1005       C  0.09077202  0.99394058  0.20855663     0.28800
C1006       C  0.06734676  0.99007075  0.22791942    -0.25100
C1007       C  0.06510630  0.97924746  0.25786103    -0.24400
C1008       C  0.08634617  0.97141243  0.26785417     0.40200
C1009       C  0.10933078  0.97488064  0.24840204    -0.26900
O1010       O  0.09299879  0.00572741  0.17993539    -0.58700
H1011       H  0.05150898  0.99647872  0.21982539     0.15800
O1012       O  0.08526414  0.96081713  0.29687438    -0.60200
H1013       H  0.12514583  0.96845882  0.25656090     0.14300
H1014       H  0.14237530  0.94360098  0.12846188     0.46200
H1015       H  0.10317918  0.52579577  0.18318063     0.41500
H1016       H  0.07438739  0.93866774  0.29496479     0.45000
H1017       H  0.17542411  0.53601964  0.23622313     0.36500
C1018       C  0.37033346  0.85159380  0.42474043    -0.27800
C1019       C  0.36594813  0.86078587  0.45336447     0.01800
C1020       C  0.38484372  0.89072535  0.46255186     0.29900
C1021       C  0.40723300  0.91119614  0.44268849    -0.19600
C1022       C  0.41076080  0.90219200  0.41344886    -0.29000
C1023       C  0.39222512  0.87194046  0.40477479     0.43900
C1024       C  0.34132804  0.83857360  0.47295674     0.05100
O1025       O  0.38117209  0.90030576  0.49054127    -0.57500
H1026       H  0.42117053  0.93431105  0.44976390     0.18100
O1027       O  0.39569338  0.86178855  0.37700939    -0.64200
H1028       H  0.35648582  0.82844475  0.41770299     0.16500
C1029       C  0.31159100  0.82345682  0.46218991     0.28800
C1030       C  0.28898567  0.79995602  0.47920510    -0.25100
C1031       C  0.29363850  0.79214194  0.00815605    -0.24400
C1032       C  0.32525166  0.80681749  0.51829094     0.40200
C1033       C  0.34780914  0.83045937  0.50127085    -0.26900
O1034       O  0.30440639  0.83183659  0.43516612    -0.58700
H1035       H  0.26630721  0.78860007  0.47034419     0.15800
O1036       O  0.33116596  0.79587559  0.04408920    -0.60200
H1037       H  0.37066482  0.84173417  0.50966019     0.14300
H1038       H  0.37994946  0.86144095  0.36372815     0.46200
H1039       H  0.30169549  0.81626205  0.42021395     0.41500
H1040       H  0.33446984  0.77947890  0.03712186     0.45000
H1041       H  0.36858611  0.90771947  0.98940298     0.36500
C1042       C  0.16595402  0.68040233  0.46110210    -0.27800
C1043       C  0.15317078  0.65009609  0.46940113     0.01800
C1044       C  0.16253569  0.64281753  0.49674488     0.29900
C1045       C  0.18506031  0.66553585  0.51463929    -0.19600
C1046       C  0.19877646  0.69579919  0.50563787    -0.29000
C1047       C  0.18839338  0.70310698  0.47895549     0.43900
C1048       C  0.13130041  0.62638981  0.44852470     0.05100
O1049       O  0.15016681  0.61351324  0.50593708    -0.57500
H1050       H  0.19247018  0.66093247  0.03272598     0.18100
O1051       O  0.20021512  0.73237663  0.46985066    -0.64200
H1052       H  0.15905517  0.68648650  0.44019997     0.16500
C1053       C  0.10568555  0.62672450  0.43797730     0.28800
C1054       C  0.08687350  0.60576453  0.41625418    -0.25100
C1055       C  0.09301871  0.58401045  0.40442676    -0.24400
C1056       C  0.11832365  0.58325538  0.41574094     0.40200
C1057       C  0.13703449  0.60419503  0.43759076    -0.26900
O1058       O  0.09900524  0.64771222  0.44850621    -0.58700
H1059       H  0.06752777  0.60687382  0.40842794     0.15800
O1060       O  0.12545301  0.56258524  0.40531231    -0.60200
H1061       H  0.15674658  0.60369759  0.44527442     0.14300
H1062       H  0.18255439  0.74143670  0.98720956     0.46200
H1063       H  0.08512406  0.63793547  0.46590456     0.41500
H1064       H  0.13969898  0.57267236  0.38823637     0.45000
H1065       H  0.13144539  0.60887803  0.51679358     0.36500
C1066       C  0.33638485  0.80139203  0.21051962    -0.27800
C1067       C  0.35035326  0.83046581  0.19825185     0.01800
C1068       C  0.34323564  0.83472292  0.16831734     0.29900
C1069       C  0.32131808  0.81025329  0.15172097    -0.19600
C1070       C  0.30598283  0.78133876  0.16471850    -0.29000
C1071       C  0.31444440  0.77699690  0.19411772     0.43900
C1072       C  0.37111248  0.85607547  0.21768984     0.05100
O1073       O  0.35673258  0.86282286  0.15550363    -0.57500
H1074       H  0.31545022  0.81421036  0.12912784     0.18100
O1075       O  0.30112420  0.74909790  0.20736707    -0.64200
H1076       H  0.34220731  0.79765052  0.23323404     0.16500
C1077       C  0.36151442  0.86040976  0.24632889     0.28800
C1078       C  0.38173795  0.88304580  0.26569174    -0.25100
C1079       C  0.41172007  0.90192070  0.25695703    -0.24400
C1080       C  0.42108208  0.89843088  0.22774195     0.40200
C1081       C  0.40080674  0.87555234  0.20837085    -0.26900
O1082       O  0.33214972  0.84298300  0.25526193    -0.58700
H1083       H  0.37390355  0.88571495  0.28777565     0.15800
O1084       O  0.45010506  0.91662562  0.21820617    -0.60200
H1085       H  0.40850249  0.87247014  0.18639718     0.14300
H1086       H  0.31321187  0.74013033  0.20054308     0.46200
H1087       H  0.33220945  0.82924228  0.27110581     0.41500
H1088       H  0.46118993  0.90673124  0.22553670     0.45000
H1089       H  0.34453731  0.87168901  0.16227217     0.36500
C1090       C  0.18213320  0.66867890  0.21691396    -0.27800
C1091       C  0.16148812  0.64164007  0.20308763     0.01800
C1092       C  0.16476507  0.63706374  0.17204733     0.29900
C1093       C  0.18824444  0.65986590  0.15500674    -0.19600
C1094       C  0.20903726  0.68718367  0.16877862    -0.29000
C1095       C  0.20576337  0.69129985  0.20018688     0.43900
C1096       C  0.13657272  0.61877541  0.22169428     0.05100
O1097       O  0.14460444  0.61080949  0.15800773    -0.57500
H1098       H  0.19022865  0.65609498  0.13101703     0.18100
O1099       O  0.22516238  0.71749679  0.21482484    -0.64200
H1100       H  0.17980592  0.67230754  0.24088232     0.16500
C1101       C  0.13697464  0.59329794  0.23238383     0.28800
C1102       C  0.11551365  0.57423677  0.25362957    -0.25100
C1103       C  0.09350841  0.58035318  0.26482633    -0.24400
C1104       C  0.09232466  0.60517338  0.25266462     0.40200
C1105       C  0.11395455  0.62425756  0.23157013    -0.26900
O1106       O  0.15895123  0.58749793  0.22311689    -0.58700
H1107       H  0.11678910  0.55513925  0.26204367     0.15800
O1108       O  0.07107187  0.61191577  0.26216512    -0.60200
H1109       H  0.11356600  0.64392676  0.22346041     0.14300
H1110       H  0.21633865  0.73057903  0.21234646     0.46200
H1111       H  0.17574571  0.59855440  0.23761789     0.41500
H1112       H  0.05431195  0.60168905  0.24744482     0.45000
H1113       H  0.15380082  0.59795088  0.15895768     0.36500
C1114       C  0.23478376  0.71090455  0.64946495     0.80000
N1115       N  0.23243480  0.71211284  0.61861193    -0.78300
C1116       C  0.25499923  0.73448312  0.60219235     0.82500
N1117       N  0.27994032  0.75580262  0.61676427    -0.78200
C1118       C  0.28273086  0.75460100  0.64748448     0.82600
N1119       N  0.26001137  0.73216535  0.66352223    -0.79900
C1120       C  0.22474801  0.71920650  0.52312796     0.80000
N1121       N  0.24669936  0.74370491  0.50839322    -0.78300
C1122       C  0.27129074  0.76472662  0.52361721     0.82500
N1123       N  0.27365474  0.76116341  0.55396147    -0.78200
C1124       C  0.25197061  0.73697516  0.56909644     0.82600
N1125       N  0.22756678  0.71586844  0.55360940    -0.79900
C1126       C  0.25632222  0.99392874  0.64815256     0.80000
N1127       N  0.25434449  0.98994441  0.61733585    -0.78300
C1128       C  0.23091705  0.98863857  0.60171184     0.82500
N1129       N  0.20922354  0.99078492  0.61708250    -0.78200
C1130       C  0.21070311  0.99449210  0.64781225     0.82600
N1131       N  0.23440994  0.99613278  0.66313521    -0.79900
C1132       C  0.24657603  0.97729835  0.52156999     0.80000
N1133       N  0.24969499  0.98218279  0.55224008    -0.78300
C1134       C  0.22814953  0.98394660  0.56847914     0.82500
N1135       N  0.20356643  0.98106769  0.55389759    -0.78200
C1136       C  0.20022415  0.97623246  0.52334492     0.82600
N1137       N  0.22178721  0.97434815  0.50746781    -0.79900
C1138       C  0.47014201  0.72919500  0.64874945     0.80000
N1139       N  0.47553236  0.73215174  0.61811825    -0.78300
C1140       C  0.47819090  0.71080921  0.60253158     0.82500
N1141       N  0.47592545  0.68679900  0.61773246    -0.78200
C1142       C  0.47046360  0.68354636  0.64817334     0.82600
N1143       N  0.46763061  0.70481834  0.66352912    -0.79900
C1144       C  0.48719151  0.73683755  0.52206434     0.80000
N1145       N  0.48329122  0.73548495  0.55288457    -0.78300
C1146       C  0.48333981  0.71313960  0.56937729     0.82500
N1147       N  0.48716211  0.69201192  0.55493267    -0.78200
C1148       C  0.49122026  0.69315032  0.52425890     0.82600
N1149       N  0.49118509  0.71560422  0.50804388    -0.79900
O1150       O  0.00963821  0.90832935  0.86930054    -0.88400
C1151       C  0.07253896  0.56364671  0.78883364     1.11700
O1152       O  0.48607133  0.94517282  0.83582679    -1.36200
O1153       O  0.07779275  0.54521260  0.86928299    -0.89800
O1154       O  0.45954487  0.88513431  0.87078439    -0.90500
O1155       O  0.45507310  0.94680816  0.90000966    -0.79300
O1156       O  0.04423624  0.97503739  0.86410311    -1.01400
C1157       C  0.48854403  0.53317537  0.89064559     1.21700
O1158       O  0.45634946  0.97757544  0.83513809    -1.36300
Mn1159     Mn  0.48737143  0.97670518  0.80231520     1.82100
O1160       O  0.48785806  0.50965234  0.89929356    -0.78400
O1161       O  0.05356081  0.57079601  0.86636339    -0.87800
C1162       C  0.48478015  0.53051479  0.77880357     1.12800
C1163       C  0.07368824  0.56646452  0.87791147     1.07500
O1164       O  0.45638694  0.94565639  0.77145372    -0.79300
O1165       O  0.01745115  0.50902905  0.83469675    -1.33000
O1166       O  0.42726896  0.91823505  0.80675229    -0.98600
C1167       C  0.40187907  0.97910455  0.87982265     1.06200
Mn1168     Mn  0.01985350  0.55129379  0.83335014     1.48600
O1169       O  0.39638209  0.95401944  0.86889812    -0.87800
Mn1170     Mn  0.44536199  0.90321615  0.83618479     1.49600
O1171       O  0.00947169  0.90871066  0.80073522    -0.91600
C1172       C  0.04039647  0.97525817  0.89142212     1.19400
C1173       C  0.48384991  0.88821009  0.79165223     1.11500
Mn1174     Mn  0.48702225  0.97717991  0.86865757     1.81000
O1175       O  0.48581634  0.53536232  0.80610602    -0.96800
Mn1176     Mn  0.02521854  0.94146198  0.83536549     1.49300
C1177       C  0.48437419  0.88882281  0.88063087     1.08000
Mn1178     Mn  0.45314897  0.51766816  0.83588380     1.49900
C1179       C  0.40145357  0.97878906  0.79035066     1.10900
O1180       O  0.42739540  0.91904297  0.86435783    -1.02600
O1181       O  0.05161094  0.56791224  0.79808854    -0.92200
C1182       C  0.43177302  0.92346186  0.89170322     1.22200
O1183       O  0.48774507  0.53692781  0.86328721    -1.03000
O1184       O  0.07782613  0.54431224  0.80082588    -0.90400
O1185       O  0.41958198  0.50282121  0.80288255    -0.90000
O1186       O  0.45937662  0.88434018  0.80269662    -0.90000
Mn1187     Mn  0.05986051  0.51187062  0.83521262     1.47900
O1188       O  0.48532135  0.50757933  0.77048958    -0.78500
C1189       C  0.43266747  0.92262779  0.77947656     1.15300
O1190       O  0.01754669  0.97581541  0.90015268    -0.77200
O1191       O  0.01843018  0.97647945  0.77119131    -0.76800
Mn1192     Mn  0.41335477  0.93814323  0.83507267     1.51100
O1193       O  0.42138261  0.50324002  0.87120236    -0.89200
O1194       O  0.04506514  0.97559589  0.80726345    -0.96700
O1195       O  0.39619968  0.95343127  0.80041020    -0.91700
C1196       C  0.04151526  0.97634603  0.77989238     1.13000
C1197       C  0.48409982  0.61799190  0.00226768    -0.27800
C1198       C  0.49819871  0.62523204  0.97356980     0.01800
C1199       C  0.51209890  0.65523735  0.96336775     0.29900
C1200       C  0.50989824  0.67682803  0.98059736    -0.19600
C1201       C  0.49449860  0.66964131  0.50820707    -0.29000
C1202       C  0.48088630  0.63986125  0.51922995     0.43900
C1203       C  0.49583511  0.60116895  0.95304953     0.05100
O1204       O  0.02763815  0.66368740  0.93624382    -0.57500
H1205       H  0.02054034  0.69969542  0.97196646     0.18100
O1206       O  0.46547062  0.63191459  0.54634932    -0.64200
H1207       H  0.47311684  0.59506513  0.01048221     0.16500
C1208       C  0.50326765  0.57960848  0.96270351     0.28800
C1209       C  0.50040005  0.55721897  0.94242232    -0.25100
C1210       C  0.49035318  0.55608097  0.91234425    -0.24400
C1211       C  0.48291718  0.57773364  0.90285336     0.40200
C1212       C  0.48538195  0.59965243  0.92317502    -0.26900
O1213       O  0.51468854  0.58111766  0.99135254    -0.58700
H1214       H  0.50669989  0.54115365  0.95005100     0.15800
O1215       O  0.47349050  0.57796738  0.87358944    -0.60200
H1216       H  0.47895802  0.61560489  0.91545963     0.14300
H1217       H  0.44461461  0.62630857  0.54099413     0.46200
H1218       H  0.49392332  0.56246450  0.50359410     0.41500
H1219       H  0.45138805  0.56855663  0.87488915     0.45000
H1220       H  0.04755209  0.66605817  0.94076631     0.36500
C1221       C  0.48786141  0.80776825  0.99836823    -0.27800
C1222       C  0.48116405  0.80241145  0.96721084     0.01800
C1223       C  0.47538077  0.77502274  0.95454724     0.29900
C1224       C  0.47688558  0.75357896  0.97287038    -0.19600
C1225       C  0.48362160  0.75871285  0.00418623    -0.29000
C1226       C  0.49048728  0.78746495  0.51612096     0.43900
C1227       C  0.48152839  0.82592801  0.94758605     0.05100
O1228       O  0.96973309  0.76926826  0.92357677    -0.57500
H1229       H  0.97291493  0.73263729  0.96221474     0.18100
O1230       O  0.49678707  0.79354525  0.54655980    -0.64200
H1231       H  0.49251078  0.82891462  0.00826042     0.16500
C1232       C  0.45493893  0.82238706  0.93487214     0.28800
C1233       C  0.45612549  0.84355524  0.91401013    -0.25100
C1234       C  0.48375540  0.86849184  0.90522781    -0.24400
C1235       C  0.01035244  0.87170744  0.91811283     0.40200
C1236       C  0.00886413  0.85052112  0.93921365    -0.26900
O1237       O  0.42774729  0.79782023  0.94201850    -0.58700
H1238       H  0.43531882  0.83986832  0.90404562     0.15800
O1239       O  0.03798195  0.89512488  0.90999269    -0.60200
H1240       H  0.02943936  0.85316128  0.94876365     0.14300
H1241       H  0.47736142  0.78827915  0.55624362     0.46200
H1242       H  0.42123653  0.80332951  0.96101690     0.41500
H1243       H  0.04558733  0.90799328  0.92833649     0.45000
H1244       H  0.94758637  0.75714249  0.92183708     0.36500
C1245       C  0.47232105  0.56455686  0.70680101    -0.28600
C1246       C  0.47574105  0.59148841  0.71838665     0.01800
C1247       C  0.98375804  0.59878759  0.74868690     0.29900
C1248       C  0.98714597  0.57895651  0.76762950    -0.19600
C1249       C  0.48245986  0.55132561  0.75707655    -0.29000
C1250       C  0.47558887  0.54448654  0.72589654     0.43900
C1251       C  0.47206837  0.61261306  0.69832324     0.05100
O1252       O  0.98947811  0.62584514  0.76028472    -0.57500
H1253       H  0.99390318  0.58551572  0.79108698     0.18100
O1254       O  0.47175169  0.51826366  0.71387644    -0.64200
H1255       H  0.46662803  0.55885024  0.68300844     0.16500
C1256       C  0.98658271  0.62244231  0.67045183     0.28800
C1257       C  0.48789252  0.64676527  0.65498775    -0.25100
C1258       C  0.46945647  0.65799575  0.66466894    -0.24400
C1259       C  0.45120880  0.64532447  0.69064365     0.40200
C1260       C  0.45252259  0.62276486  0.70713436    -0.26900
O1261       O  0.00508606  0.61225342  0.66055199    -0.58700
H1262       H  0.99840256  0.65337476  0.63315780     0.15800
O1263       O  0.43221805  0.65498370  0.70031831    -0.60200
H1264       H  0.43864159  0.61354991  0.72730058     0.14300
H1265       H  0.44999287  0.50366000  0.71590876     0.46200
H1266       H  0.99401790  0.59812681  0.64373319     0.41500
H1267       H  0.41306898  0.64213982  0.68946916     0.45000
H1268       H  0.01087531  0.64000835  0.75554622     0.36500
C1269       C  0.45396655  0.76999097  0.71152476    -0.27800
C1270       C  0.47199575  0.79998961  0.70249956     0.01800
C1271       C  0.98894966  0.80723901  0.67370476     0.29900
C1272       C  0.98705146  0.78369153  0.65605237    -0.19600
C1273       C  0.46899278  0.75316018  0.66639379    -0.29000
C1274       C  0.45256339  0.74668921  0.69391115     0.43900
C1275       C  0.47541753  0.82422465  0.72317037     0.05100
O1276       O  0.00720988  0.83628517  0.66425617    -0.57500
H1277       H  0.00028219  0.78901164  0.63535251     0.18100
O1278       O  0.43470988  0.71764475  0.70361544    -0.64200
H1279       H  0.44162157  0.76465843  0.73282744     0.16500
C1280       C  0.45055298  0.82680270  0.73169980     0.28800
C1281       C  0.45384970  0.84816655  0.75335064    -0.25100
C1282       C  0.48186572  0.86737819  0.76701341    -0.24400
C1283       C  0.00724260  0.86560478  0.75709512     0.40200
C1284       C  0.00405601  0.84455316  0.73501904    -0.26900
O1285       O  0.42281227  0.80818865  0.71935063    -0.58700
H1286       H  0.43418726  0.84937778  0.75968146     0.15800
O1287       O  0.03473696  0.88289594  0.77046565    -0.60200
H1288       H  0.02328026  0.84237098  0.72917939     0.14300
H1289       H  0.44624645  0.71472985  0.72005046     0.46200
H1290       H  0.42147434  0.81917043  0.70135838     0.41500
H1291       H  0.03486476  0.87111018  0.78833974     0.45000
H1292       H  0.99401139  0.84140684  0.65239985     0.36500
C1293       C  0.36376590  0.00411603  0.93790022    -0.27800
C1294       C  0.34031113  0.97641767  0.94818221     0.01800
C1295       C  0.33876049  0.94985546  0.93788955     0.29900
C1296       C  0.35947577  0.95117483  0.91646578    -0.19600
C1297       C  0.38226348  0.97885714  0.90492213    -0.29000
C1298       C  0.38478291  0.00553619  0.91672086     0.43900
C1299       C  0.31644236  0.97537021  0.96791516     0.05100
O1300       O  0.31662752  0.92239746  0.94815120    -0.57500
H1301       H  0.35721846  0.93027267  0.90848506     0.18100
O1302       O  0.40784833  0.53129877  0.91247346    -0.64200
H1303       H  0.36555522  0.52240154  0.95052173     0.16500
C1304       C  0.32320590  0.99153471  0.99545707     0.28800
C1305       C  0.29966328  0.98892208  0.51477354    -0.25100
C1306       C  0.27013990  0.97448264  0.00323882    -0.24400
C1307       C  0.26344518  0.95813241  0.97573334     0.40200
C1308       C  0.28646467  0.95860899  0.95846147    -0.26900
O1309       O  0.35105963  0.00216372  0.50907333    -0.58700
H1310       H  0.30511279  0.99940360  0.53705580     0.15800
O1311       O  0.23317343  0.44333401  0.96426772    -0.60200
H1312       H  0.27948901  0.44769451  0.93615418     0.14300
H1313       H  0.42313902  0.53583727  0.92848657     0.46200
H1314       H  0.35206104  0.98578653  0.51990904     0.41500
H1315       H  0.23225183  0.45701271  0.94890922     0.45000
H1316       H  0.32529589  0.91790954  0.96622455     0.36500
C1317       C  0.11226598  0.98216077  0.92190114    -0.27800
C1318       C  0.10421985  0.97178290  0.95189076     0.01800
C1319       C  0.07537024  0.96376293  0.96258725     0.29900
C1320       C  0.05492329  0.96593160  0.94312348    -0.19600
C1321       C  0.06270977  0.97538385  0.91271650    -0.29000
C1322       C  0.09186209  0.98380824  0.90230175     0.43900
C1323       C  0.12653829  0.96988042  0.97154822     0.05100
O1324       O  0.06666298  0.95291720  0.99165746    -0.57500
H1325       H  0.03262553  0.95913614  0.95146918     0.18100
O1326       O  0.10105929  0.49656840  0.87254129    -0.64200
H1327       H  0.13523382  0.49265869  0.91335172     0.16500
C1328       C  0.14079675  0.95416957  0.96176413     0.28800
C1329       C  0.16418308  0.95531892  0.97897676    -0.25100
C1330       C  0.17366101  0.97334522  0.50707332    -0.24400
C1331       C  0.15813925  0.98768993  0.51750382     0.40200
C1332       C  0.13546655  0.98588793  0.99903644    -0.26900
O1333       O  0.13163416  0.93724538  0.93563265    -0.58700
H1334       H  0.17494769  0.94319163  0.97095180     0.15800
O1335       O  0.16777856  0.50611192  0.54198965    -0.60200
H1336       H  0.12464758  0.50013542  0.50635312     0.14300
H1337       H  0.11392885  0.51868401  0.87369479     0.46200
H1338       H  0.14771859  0.94855634  0.92042012     0.41500
H1339       H  0.18338685  0.52625690  0.53480177     0.45000
H1340       H  0.05836068  0.93095198  0.99002351     0.36500
C1341       C  0.31307462  0.00767963  0.71064572    -0.27800
C1342       C  0.32431841  0.98927756  0.70120688     0.01800
C1343       C  0.31450828  0.97381095  0.67335459     0.29900
C1344       C  0.29319112  0.97635641  0.65568293    -0.19600
C1345       C  0.28097903  0.99388303  0.66567654    -0.29000
C1346       C  0.29143289  0.00988701  0.69331121     0.43900
C1347       C  0.34536950  0.98564554  0.72135816     0.05100
O1348       O  0.32524045  0.95576650  0.66348714    -0.57500
H1349       H  0.28549150  0.96380470  0.63460003     0.18100
O1350       O  0.28110994  0.02825074  0.70329922    -0.64200
H1351       H  0.32060105  0.01984815  0.73196908     0.16500
C1352       C  0.37409492  0.00999168  0.72751678     0.28800
C1353       C  0.39247420  0.00705247  0.74913727    -0.25100
C1354       C  0.38254225  0.98001540  0.76530031    -0.24400
C1355       C  0.35406778  0.95524065  0.75815652     0.40200
C1356       C  0.33578245  0.95825045  0.73638698    -0.26900
O1357       O  0.37712781  0.53857159  0.72176773    -0.58700
H1358       H  0.40794403  0.52788530  0.76147800     0.15800
O1359       O  0.34308111  0.92852395  0.77349534    -0.60200
H1360       H  0.31358034  0.93940679  0.73198166     0.14300
H1361       H  0.26624506  0.01667458  0.71947067     0.46200
H1362       H  0.37497037  0.55007480  0.73871097     0.41500
H1363       H  0.34740445  0.91571161  0.76005850     0.45000
H1364       H  0.34434732  0.96943474  0.65288753     0.36500
C1365       C  0.13366176  0.98214944  0.66987753    -0.27800
C1366       C  0.13853818  0.99237045  0.70016876     0.01800
C1367       C  0.16783312  0.00528528  0.71222918     0.29900
C1368       C  0.19104227  0.00624495  0.69479864    -0.19600
C1369       C  0.18601165  0.99514046  0.66480674    -0.29000
C1370       C  0.15702197  0.98363543  0.65217523     0.43900
C1371       C  0.11277565  0.98762762  0.71968030     0.05100
O1372       O  0.17344890  0.52157164  0.73799942    -0.57500
H1373       H  0.21310087  0.01566627  0.70496166     0.18100
O1374       O  0.15087852  0.97294021  0.62285509    -0.64200
H1375       H  0.11136588  0.97188943  0.66014989     0.16500
C1376       C  0.09104620  0.99470772  0.70955522     0.28800
C1377       C  0.06714551  0.98978114  0.72876489    -0.25100
C1378       C  0.06481313  0.97842651  0.75846642    -0.24400
C1379       C  0.08632543  0.97092932  0.76828757     0.40200
C1380       C  0.10965069  0.97521699  0.74891983    -0.26900
O1381       O  0.09327971  0.00706280  0.68123418    -0.58700
H1382       H  0.05108293  0.99594510  0.72080932     0.15800
O1383       O  0.08518329  0.95985438  0.79708275    -0.60200
H1384       H  0.12545531  0.96873290  0.75693378     0.14300
H1385       H  0.14367218  0.95118726  0.62463492     0.46200
H1386       H  0.10488811  0.52833759  0.68239022     0.41500
H1387       H  0.07359981  0.93773594  0.79491825     0.45000
H1388       H  0.17606841  0.54166317  0.73384926     0.36500
C1389       C  0.36835700  0.85145995  0.92516309    -0.27800
C1390       C  0.36503501  0.86072342  0.95418340     0.01800
C1391       C  0.38502158  0.89035010  0.96354174     0.29900
C1392       C  0.40735245  0.91053414  0.94342910    -0.19600
C1393       C  0.40986215  0.90154059  0.91380648    -0.29000
C1394       C  0.39034189  0.87148850  0.90502334     0.43900
C1395       C  0.34029689  0.83896169  0.97398785     0.05100
O1396       O  0.38252345  0.89991054  0.99199641    -0.57500
H1397       H  0.42211538  0.93344398  0.95068252     0.18100
O1398       O  0.39295429  0.86118585  0.87699745    -0.64200
H1399       H  0.35362463  0.82850671  0.91798036     0.16500
C1400       C  0.31029619  0.82600626  0.96431310     0.28800
C1401       C  0.28727697  0.80285195  0.98132537    -0.25100
C1402       C  0.29548725  0.79096733  0.50710353    -0.24400
C1403       C  0.32373112  0.80577568  0.01826023     0.40200
C1404       C  0.34671518  0.82905706  0.00125035    -0.26900
O1405       O  0.30329159  0.83615458  0.93837064    -0.58700
H1406       H  0.26437528  0.79312286  0.97334150     0.15800
O1407       O  0.33286277  0.79888235  0.54531233    -0.60200
H1408       H  0.36975203  0.83862761  0.00875248     0.14300
H1409       H  0.37728631  0.86146308  0.86411086     0.46200
H1410       H  0.29981850  0.82113751  0.92242139     0.41500
H1411       H  0.33837486  0.78364280  0.53975613     0.45000
H1412       H  0.36653779  0.90712268  0.48712136     0.36500
C1413       C  0.16256199  0.68386786  0.96253758    -0.27800
C1414       C  0.15165604  0.65333660  0.96854208     0.01800
C1415       C  0.16211857  0.64532168  0.99463833     0.29900
C1416       C  0.18404063  0.66760584  0.01338923    -0.19600
C1417       C  0.19607804  0.69815998  0.00645821    -0.29000
C1418       C  0.18446581  0.70613976  0.98124715     0.43900
C1419       C  0.13078459  0.63021012  0.94654033     0.05100
O1420       O  0.15153854  0.61573559  0.00164432    -0.57500
H1421       H  0.19246355  0.65932861  0.53511013     0.18100
O1422       O  0.19468895  0.73569056  0.97436976    -0.64200
H1423       H  0.15475820  0.69052487  0.94267985     0.16500
C1424       C  0.10391025  0.62873093  0.93734086     0.28800
C1425       C  0.08546034  0.60764757  0.91547951    -0.25100
C1426       C  0.09326094  0.58762661  0.90217337    -0.24400
C1427       C  0.12024596  0.58919516  0.91154278     0.40200
C1428       C  0.13852324  0.61014235  0.93358224    -0.26900
O1429       O  0.09551414  0.64789564  0.94948790    -0.58700
H1430       H  0.06495115  0.60711831  0.90889613     0.15800
O1431       O  0.12945629  0.57087345  0.89894679    -0.60200
H1432       H  0.15934975  0.61125670  0.93998707     0.14300
H1433       H  0.18822839  0.73965155  0.48071285     0.46200
H1434       H  0.08148266  0.63649479  0.96632312     0.41500
H1435       H  0.14178330  0.58205285  0.88099972     0.45000
H1436       H  0.13277645  0.60928791  0.01328422     0.36500
C1437       C  0.33824881  0.79879660  0.71027275    -0.27800
C1438       C  0.35250134  0.82793209  0.69812174     0.01800
C1439       C  0.34610896  0.83230170  0.66791946     0.29900
C1440       C  0.32451489  0.80794123  0.65097105    -0.19600
C1441       C  0.30873688  0.77903360  0.66388517    -0.29000
C1442       C  0.31660297  0.77450027  0.69349973     0.43900
C1443       C  0.37272544  0.85355422  0.71786091     0.05100
O1444       O  0.35988283  0.86045138  0.65521028    -0.57500
H1445       H  0.31909890  0.81202532  0.62821806     0.18100
O1446       O  0.30286754  0.74653546  0.70662987    -0.64200
H1447       H  0.34354207  0.79495029  0.73318457     0.16500
C1448       C  0.36245377  0.85789343  0.74611122     0.28800
C1449       C  0.38205145  0.88101150  0.76544186    -0.25100
C1450       C  0.41207328  0.90031910  0.75707930    -0.24400
C1451       C  0.42212422  0.89665405  0.72831359     0.40200
C1452       C  0.40248197  0.87334902  0.70897789    -0.26900
O1453       O  0.33302016  0.84006718  0.75463674    -0.58700
H1454       H  0.37370943  0.88372188  0.78720460     0.15800
O1455       O  0.45123222  0.91512613  0.71918820    -0.60200
H1456       H  0.41071128  0.87025402  0.68733285     0.14300
H1457       H  0.31463975  0.73725924  0.69969306     0.46200
H1458       H  0.33314695  0.82657525  0.77073486     0.41500
H1459       H  0.46247921  0.90561221  0.72711063     0.45000
H1460       H  0.34739320  0.86919124  0.66133367     0.36500
C1461       C  0.18310307  0.66949631  0.71635685    -0.27800
C1462       C  0.16040477  0.64393225  0.70202080     0.01800
C1463       C  0.16211513  0.64009025  0.67050421     0.29900
C1464       C  0.18638462  0.66199481  0.65358876    -0.19600
C1465       C  0.20944315  0.68773700  0.66788025    -0.29000
C1466       C  0.20746364  0.69128594  0.69969917     0.43900
C1467       C  0.13546805  0.62131643  0.72071778     0.05100
O1468       O  0.13982742  0.61538288  0.65597396    -0.57500
H1469       H  0.18719219  0.65869585  0.62926950     0.18100
O1470       O  0.22900269  0.71599737  0.71490389    -0.64200
H1471       H  0.18194638  0.67251524  0.74070337     0.16500
C1472       C  0.13503282  0.59504810  0.73004357     0.28800
C1473       C  0.11359315  0.57580607  0.75116872    -0.25100
C1474       C  0.09242840  0.58250770  0.76357656    -0.24400
C1475       C  0.09209859  0.60824521  0.75286418     0.40200
C1476       C  0.11374383  0.62753188  0.73187584    -0.26900
O1477       O  0.15617054  0.58857707  0.71947577    -0.58700
H1478       H  0.11420847  0.55604865  0.75851389     0.15800
O1479       O  0.07181209  0.61571256  0.76382551    -0.60200
H1480       H  0.11407327  0.64785751  0.72485654     0.14300
H1481       H  0.22217721  0.73084448  0.71399010     0.46200
H1482       H  0.17330317  0.59875590  0.73377398     0.41500
H1483       H  0.05477630  0.60661615  0.74929342     0.45000
H1484       H  0.14656888  0.60045585  0.65611048     0.36500
C1485       C  0.73385392  0.21021424  0.14886365     0.80000
N1486       N  0.73127380  0.21218138  0.11816032    -0.78300
C1487       C  0.75281780  0.23598464  0.10237627     0.82500
N1488       N  0.77683556  0.25801094  0.11741542    -0.78200
C1489       C  0.77967852  0.25630170  0.14802986     0.82600
N1490       N  0.75800050  0.23242037  0.16350896    -0.79900
C1491       C  0.72379527  0.22108350  0.02293965     0.80000
N1492       N  0.74572178  0.24592017  0.00861666    -0.78300
C1493       C  0.76977861  0.26709760  0.02436044     0.82500
N1494       N  0.77162948  0.26338475  0.05472458    -0.78200
C1495       C  0.74998674  0.23886301  0.06940448     0.82600
N1496       N  0.72613965  0.21755818  0.05346367    -0.79900
C1497       C  0.75240643  0.48967942  0.14863751     0.80000
N1498       N  0.75084709  0.48592950  0.11778805    -0.78300
C1499       C  0.72746429  0.48446168  0.10189952     0.82500
N1500       N  0.70546238  0.48632572  0.11700032    -0.78200
C1501       C  0.70661344  0.48983511  0.14773606     0.82600
N1502       N  0.73017948  0.49152468  0.16328483    -0.79900
C1503       C  0.74374784  0.47325819  0.02196785     0.80000
N1504       N  0.74660483  0.47792680  0.05267545    -0.78300
C1505       C  0.72516740  0.48012381  0.06863793     0.82500
N1506       N  0.70107446  0.47801233  0.05373956    -0.78200
C1507       C  0.69807136  0.47352269  0.02314270     0.82600
N1508       N  0.71944896  0.47109781  0.00751034    -0.79900
C1509       C  0.97174874  0.23017042  0.14784960     0.80000
N1510       N  0.97742916  0.23303030  0.11726620    -0.78300
C1511       C  0.97977583  0.21140537  0.10181933     0.82500
N1512       N  0.97693200  0.18722128  0.11715130    -0.78200
C1513       C  0.97120663  0.18403120  0.14757602     0.82600
N1514       N  0.96864535  0.20558965  0.16276579    -0.79900
C1515       C  0.98831391  0.23719549  0.02135534     0.80000
N1516       N  0.98420273  0.23552680  0.05212117    -0.78300
C1517       C  0.98519217  0.21372795  0.06865438     0.82500
N1518       N  0.99024344  0.19333114  0.05424806    -0.78200
C1519       C  0.99469375  0.19482690  0.02355713     0.82600
N1520       N  0.99370415  0.21682970  0.00738773    -0.79900
O1521       O  0.50890243  0.40902354  0.36948304    -0.88400
C1522       C  0.57421219  0.06284124  0.28959056     1.11700
O1523       O  0.98482802  0.44509327  0.33592822    -1.36200
O1524       O  0.57829323  0.04387863  0.37049034    -0.89800
O1525       O  0.95859227  0.38513425  0.37095485    -0.90500
O1526       O  0.95394842  0.44660948  0.40007643    -0.79300
O1527       O  0.54333472  0.47540310  0.36451722    -1.01400
C1528       C  0.98899874  0.03378415  0.38960122     1.21700
O1529       O  0.95485461  0.47729367  0.33555231    -1.36300
Mn1530     Mn  0.98592515  0.47667495  0.30259263     1.82100
O1531       O  0.98859261  0.01047591  0.39867948    -0.78400
O1532       O  0.55512053  0.07047988  0.36663902    -0.87800
C1533       C  0.98595317  0.03080513  0.27786306     1.12800
C1534       C  0.57462410  0.06551500  0.37872242     1.07500
O1535       O  0.95498536  0.44576689  0.27173171    -0.79300
O1536       O  0.51866912  0.00910224  0.33500250    -1.33000
O1537       O  0.92606971  0.41818667  0.30706180    -0.98600
C1538       C  0.89992728  0.47840000  0.38023089     1.06200
Mn1539     Mn  0.52165385  0.05164481  0.33338884     1.48600
O1540       O  0.89451275  0.45336247  0.36921424    -0.87800
Mn1541     Mn  0.94421965  0.40305997  0.33630946     1.49600
O1542       O  0.50876438  0.40920550  0.30116397    -0.91600
C1543       C  0.53920135  0.47527309  0.39184046     1.19400
C1544       C  0.98296637  0.38827673  0.29159601     1.11500
Mn1545     Mn  0.98573300  0.47691524  0.36884040     1.81000
O1546       O  0.98689413  0.03570617  0.30512692    -0.96800
Mn1547     Mn  0.52438486  0.44195296  0.33567915     1.49300
C1548       C  0.98353076  0.38915539  0.38090021     1.08000
Mn1549     Mn  0.95403078  0.01791483  0.33461957     1.49900
C1550       C  0.89982735  0.47841481  0.29087369     1.10900
O1551       O  0.92595210  0.41865961  0.36463427    -1.02600
O1552       O  0.55356119  0.06776745  0.29827145    -0.92200
C1553       C  0.93042224  0.42345266  0.39193590     1.22200
O1554       O  0.98843125  0.03722582  0.36218546    -1.03000
O1555       O  0.57907378  0.04353184  0.30224143    -0.90400
O1556       O  0.92070765  0.00282107  0.30127073    -0.90000
O1557       O  0.95836036  0.38425190  0.30253517    -0.90000
Mn1558     Mn  0.56064117  0.01094859  0.33600909     1.47900
O1559       O  0.98670303  0.00792953  0.26972730    -0.78500
C1560       C  0.93126036  0.42280695  0.27979206     1.15300
O1561       O  0.51630301  0.47579865  0.40044950    -0.77200
O1562       O  0.51734082  0.47685377  0.27158742    -0.76800
Mn1563     Mn  0.91188849  0.43776681  0.33539711     1.51100
O1564       O  0.92207511  0.00355745  0.36971599    -0.89200
O1565       O  0.54407281  0.47599356  0.30759790    -0.96700
O1566       O  0.89478596  0.45306418  0.30071081    -0.91700
C1567       C  0.54034302  0.47656256  0.28025186     1.13000
C1568       C  0.98172371  0.11861156  0.49967432    -0.27800
C1569       C  0.99485241  0.12575525  0.47048356     0.01800
C1570       C  0.00750129  0.15555861  0.45987881     0.29900
C1571       C  0.00565089  0.17708926  0.47759478    -0.19600
C1572       C  0.99929593  0.17209528  0.00733392    -0.29000
C1573       C  0.98726241  0.14250210  0.01848133     0.43900
C1574       C  0.99348497  0.10180406  0.45037011     0.05100
O1575       O  0.52599985  0.16471189  0.43456348    -0.57500
H1576       H  0.51917750  0.20041927  0.47091615     0.18100
O1577       O  0.97244891  0.13409892  0.04592009    -0.64200
H1578       H  0.97148743  0.09581685  0.50815506     0.16500
C1579       C  0.00199839  0.08119211  0.46063078     0.28800
C1580       C  0.00001071  0.05877001  0.44092015    -0.25100
C1581       C  0.99000168  0.05676424  0.41071780    -0.24400
C1582       C  0.98180465  0.07767551  0.40046811     0.40200
C1583       C  0.98316267  0.09947676  0.42031047    -0.26900
O1584       O  0.01369950  0.08373751  0.48932433    -0.58700
H1585       H  0.00702018  0.04340449  0.44907591     0.15800
O1586       O  0.97268897  0.07728309  0.37092297    -0.60200
H1587       H  0.97597652  0.11467316  0.41204940     0.14300
H1588       H  0.95118940  0.12720597  0.04101200     0.46200
H1589       H  0.00348648  0.06731702  0.00214899     0.41500
H1590       H  0.95060737  0.06809068  0.37189044     0.45000
H1591       H  0.54622141  0.16780262  0.43890820     0.36500
C1592       C  0.98924240  0.31010839  0.49982177    -0.27800
C1593       C  0.98045168  0.30422443  0.46915771     0.01800
C1594       C  0.97232224  0.27607531  0.45675166     0.29900
C1595       C  0.97371224  0.25441110  0.47473351    -0.19600
C1596       C  0.98272126  0.26010739  0.50547746    -0.29000
C1597       C  0.97850783  0.28076026  0.01562160     0.43900
C1598       C  0.98112544  0.32786992  0.44955437     0.05100
O1599       O  0.49527606  0.28409331  0.42394461    -0.57500
H1600       H  0.49573079  0.24606843  0.46217488     0.18100
O1601       O  0.97185585  0.27973730  0.04606537    -0.64200
H1602       H  0.99567442  0.33183869  0.50949349     0.16500
C1603       C  0.95444732  0.32571457  0.43884654     0.28800
C1604       C  0.95558154  0.34636848  0.41733964    -0.25100
C1605       C  0.98323141  0.36941058  0.40596993    -0.24400
C1606       C  0.51126376  0.37062781  0.41448028     0.40200
C1607       C  0.51043088  0.34976571  0.43545049    -0.26900
O1608       O  0.92712291  0.30286039  0.44849932    -0.58700
H1609       H  0.93463513  0.34375662  0.40897905     0.15800
O1610       O  0.53837649  0.39088505  0.40183128    -0.60200
H1611       H  0.53106431  0.35015901  0.44119935     0.14300
H1612       H  0.94979282  0.26646465  0.04742638     0.46200
H1613       H  0.92316225  0.30991695  0.46804256     0.41500
H1614       H  0.54793723  0.40742629  0.41685420     0.45000
H1615       H  0.47533604  0.27208754  0.41420184     0.36500
C1616       C  0.96969514  0.06316255  0.20676014    -0.28600
C1617       C  0.97586773  0.09133532  0.21761351     0.01800
C1618       C  0.49037603  0.10199996  0.24789103     0.29900
C1619       C  0.49300742  0.08166519  0.26682311    -0.19600
C1620       C  0.98339565  0.05144788  0.25604655    -0.29000
C1621       C  0.97333544  0.04322156  0.22574900     0.43900
C1622       C  0.97189506  0.11241317  0.19770703     0.05100
O1623       O  0.49883823  0.13005168  0.25884419    -0.57500
H1624       H  0.50134749  0.08860910  0.28982096     0.18100
O1625       O  0.96646836  0.01566531  0.21462441    -0.64200
H1626       H  0.96154462  0.05641229  0.18368950     0.16500
C1627       C  0.48991478  0.12424130  0.16981240     0.28800
C1628       C  0.98619234  0.14517381  0.15330221    -0.25100
C1629       C  0.96971794  0.15821354  0.16419599    -0.24400
C1630       C  0.95302696  0.14700387  0.19137934     0.40200
C1631       C  0.95420662  0.12432470  0.20784287    -0.26900
O1632       O  0.50700287  0.11274302  0.15899587    -0.58700
H1633       H  0.50089167  0.15431027  0.13187793     0.15800
O1634       O  0.93574895  0.15822618  0.20231362    -0.60200
H1635       H  0.94172544  0.11640031  0.22900723     0.14300
H1636       H  0.94484474  0.00232888  0.21915387     0.46200
H1637       H  0.49454142  0.09807521  0.14309996     0.41500
H1638       H  0.91612667  0.14649933  0.19191335     0.45000
H1639       H  0.51992477  0.14292679  0.25211338     0.36500
C1640       C  0.95319299  0.27092821  0.20875092    -0.27800
C1641       C  0.97331948  0.30109355  0.20156594     0.01800
C1642       C  0.49415303  0.30974015  0.17542772     0.29900
C1643       C  0.49310949  0.28668868  0.15754097    -0.19600
C1644       C  0.97072402  0.25434799  0.16531122    -0.29000
C1645       C  0.95195831  0.24769507  0.19107217     0.43900
C1646       C  0.97617851  0.32510699  0.22251490     0.05100
O1647       O  0.51460001  0.33900174  0.16842122    -0.57500
H1648       H  0.50865773  0.29250474  0.13866343     0.18100
O1649       O  0.93191329  0.21852730  0.19887220    -0.64200
H1650       H  0.93897371  0.26530787  0.22874571     0.16500
C1651       C  0.95108580  0.32755280  0.23060731     0.28800
C1652       C  0.95380490  0.34854612  0.25253051    -0.25100
C1653       C  0.98147153  0.36766398  0.26683463    -0.24400
C1654       C  0.50714986  0.36533725  0.25916580     0.40200
C1655       C  0.50469126  0.34480138  0.23683367    -0.26900
O1656       O  0.92367611  0.30925446  0.21744978    -0.58700
H1657       H  0.93398718  0.34962973  0.25847767     0.15800
O1658       O  0.53397680  0.38170158  0.27403134    -0.60200
H1659       H  0.52397701  0.34241073  0.23196825     0.14300
H1660       H  0.94092335  0.21412030  0.21671350     0.46200
H1661       H  0.92235019  0.32108897  0.20026742     0.41500
H1662       H  0.53266098  0.36945649  0.29209829     0.45000
H1663       H  0.50347734  0.34604937  0.15564558     0.36500
C1664       C  0.86096433  0.50335220  0.43740166    -0.27800
C1665       C  0.83776750  0.47566441  0.44807065     0.01800
C1666       C  0.83655385  0.44913144  0.43813012     0.29900
C1667       C  0.85741688  0.45047052  0.41685933    -0.19600
C1668       C  0.88004163  0.47812869  0.40509431    -0.29000
C1669       C  0.88212297  0.50479415  0.41637910     0.43900
C1670       C  0.81396339  0.47456826  0.46805683     0.05100
O1671       O  0.81465553  0.42165435  0.44861455    -0.57500
H1672       H  0.85545207  0.42959739  0.40920824     0.18100
O1673       O  0.90956643  0.03202353  0.41132405    -0.64200
H1674       H  0.86764227  0.02394159  0.44946052     0.16500
C1675       C  0.82093084  0.49155273  0.49508989     0.28800
C1676       C  0.79710600  0.48635862  0.01446097    -0.25100
C1677       C  0.76775890  0.47326618  0.50401838    -0.24400
C1678       C  0.76084263  0.45612088  0.47704704     0.40200
C1679       C  0.78380697  0.45681960  0.45944761    -0.26900
O1680       O  0.84889416  0.50170339  0.00759503    -0.58700
H1681       H  0.80285052  0.49822891  0.03600848     0.15800
O1682       O  0.73503553  0.94663634  0.46306785    -0.60200
H1683       H  0.78108357  0.95046534  0.43505734     0.14300
H1684       H  0.92430821  0.03679614  0.42797988     0.46200
H1685       H  0.85119475  0.48654631  0.01938123     0.41500
H1686       H  0.73433801  0.96079790  0.44818349     0.45000
H1687       H  0.82236803  0.41867027  0.46825750     0.36500
C1688       C  0.61021052  0.48081232  0.42328270    -0.27800
C1689       C  0.60152404  0.46965636  0.45296464     0.01800
C1690       C  0.57236011  0.46115591  0.46303065     0.29900
C1691       C  0.55237595  0.46391956  0.44336290    -0.19600
C1692       C  0.56093326  0.47446794  0.41333913    -0.29000
C1693       C  0.59024351  0.48298019  0.40344223     0.43900
C1694       C  0.62353307  0.46743717  0.47290773     0.05100
O1695       O  0.56297006  0.44945253  0.49171582    -0.57500
H1696       H  0.52988378  0.45688117  0.45126317     0.18100
O1697       O  0.60130685  0.99495098  0.37381916    -0.64200
H1698       H  0.63459966  0.99000877  0.41487316     0.16500
C1699       C  0.63822746  0.45221626  0.46293612     0.28800
C1700       C  0.66163447  0.45344818  0.48019007    -0.25100
C1701       C  0.67203183  0.47153688  0.00664017    -0.24400
C1702       C  0.65668811  0.48597252  0.01736325     0.40200
C1703       C  0.63193492  0.48286761  0.50076207    -0.26900
O1704       O  0.62953341  0.43575584  0.43649407    -0.58700
H1705       H  0.67276460  0.44175927  0.47192462     0.15800
O1706       O  0.66860627  0.00587780  0.04224628    -0.60200
H1707       H  0.62556646  0.00009200  0.00671075     0.14300
H1708       H  0.61388826  0.01707725  0.37537868     0.46200
H1709       H  0.64577977  0.44743255  0.42154955     0.41500
H1710       H  0.68425486  0.02617103  0.03547243     0.45000
H1711       H  0.55477153  0.42755483  0.48944666     0.36500
C1712       C  0.80715351  0.50254624  0.21301369    -0.27800
C1713       C  0.82139694  0.48734726  0.20220385     0.01800
C1714       C  0.81404551  0.47416156  0.17307181     0.29900
C1715       C  0.79224535  0.47584074  0.15538783    -0.19600
C1716       C  0.77719136  0.49028180  0.16656795    -0.29000
C1717       C  0.78513493  0.50395391  0.19563286     0.43900
C1718       C  0.84306967  0.48464453  0.22220011     0.05100
O1719       O  0.82775582  0.45926346  0.16187426    -0.57500
H1720       H  0.78655435  0.46510366  0.13323275     0.18100
O1721       O  0.77197933  0.51929998  0.20709841    -0.64200
H1722       H  0.81269334  0.51285582  0.23539112     0.16500
C1723       C  0.86977476  0.51022151  0.23138175     0.28800
C1724       C  0.88853504  0.50761550  0.25274204    -0.25100
C1725       C  0.88084439  0.47967091  0.26587577    -0.24400
C1726       C  0.85440856  0.45386098  0.25577192     0.40200
C1727       C  0.83583698  0.45655596  0.23412838    -0.26900
O1728       O  0.87617319  0.03791830  0.22179812    -0.58700
H1729       H  0.90761134  0.02783516  0.26125233     0.15800
O1730       O  0.84563541  0.42611701  0.26792677    -0.60200
H1731       H  0.81514882  0.43673371  0.22740167     0.14300
H1732       H  0.75684604  0.50543730  0.22201841     0.46200
H1733       H  0.87271059  0.04819887  0.23908411     0.41500
H1734       H  0.84941641  0.41512236  0.25162750     0.45000
H1735       H  0.84687183  0.47507469  0.15283267     0.36500
C1736       C  0.62980526  0.47785541  0.16994542    -0.27800
C1737       C  0.63517343  0.48891522  0.19992119     0.01800
C1738       C  0.66455278  0.50211926  0.21167449     0.29900
C1739       C  0.68751085  0.50269009  0.19423000    -0.19600
C1740       C  0.68205717  0.49074527  0.16457559    -0.29000
C1741       C  0.65291104  0.47878248  0.15224999     0.43900
C1742       C  0.60987385  0.48492116  0.21953013     0.05100
O1743       O  0.67354359  0.01880778  0.23909240    -0.57500
H1744       H  0.70971273  0.51247364  0.20412027     0.18100
O1745       O  0.64640850  0.46711042  0.12331781    -0.64200
H1746       H  0.60736438  0.46746553  0.16054369     0.16500
C1747       C  0.58919718  0.49351169  0.20977446     0.28800
C1748       C  0.56582639  0.48959548  0.22919100    -0.25100
C1749       C  0.56313172  0.47783269  0.25874249    -0.24400
C1750       C  0.58372934  0.46900727  0.26827926     0.40200
C1751       C  0.60648014  0.47224969  0.24865289    -0.26900
O1752       O  0.59212936  0.50654420  0.18170242    -0.58700
H1753       H  0.55050266  0.49684266  0.22153736     0.15800
O1754       O  0.58235680  0.45784302  0.29708351    -0.60200
H1755       H  0.62174779  0.46496033  0.25640170     0.14300
H1756       H  0.63963105  0.44550850  0.12583754     0.46200
H1757       H  0.60641177  0.03241880  0.18487341     0.41500
H1758       H  0.57179403  0.43575495  0.29469183     0.45000
H1759       H  0.67792809  0.03974353  0.23656217     0.36500
C1760       C  0.86572735  0.35348198  0.42687398    -0.27800
C1761       C  0.86253395  0.36405994  0.45521508     0.01800
C1762       C  0.88274910  0.39392755  0.46353594     0.29900
C1763       C  0.90542906  0.41300065  0.44315256    -0.19600
C1764       C  0.90804204  0.40262319  0.41428971    -0.29000
C1765       C  0.88808265  0.37242792  0.40644294     0.43900
C1766       C  0.83804398  0.34316631  0.47566292     0.05100
O1767       O  0.88023295  0.40473912  0.49127335    -0.57500
H1768       H  0.92043773  0.43612399  0.44958153     0.18100
O1769       O  0.89069712  0.36093242  0.37915227    -0.64200
H1770       H  0.85071930  0.33031895  0.42053458     0.16500
C1771       C  0.80794273  0.33033570  0.46645881     0.28800
C1772       C  0.78519444  0.30697709  0.48349568    -0.25100
C1773       C  0.79427866  0.29336820  0.00834128    -0.24400
C1774       C  0.82214429  0.30993598  0.51982283     0.40200
C1775       C  0.84484507  0.33337168  0.50275551    -0.26900
O1776       O  0.80063484  0.34053867  0.44075803    -0.58700
H1777       H  0.76220950  0.29706519  0.47571826     0.15800
O1778       O  0.83123820  0.29944607  0.04629527    -0.60200
H1779       H  0.86798620  0.34295269  0.50990783     0.14300
H1780       H  0.87539877  0.36116422  0.36561983     0.46200
H1781       H  0.79738648  0.32577998  0.42459419     0.41500
H1782       H  0.83575571  0.28357248  0.04042551     0.45000
H1783       H  0.86643150  0.40824066  0.98779112     0.36500
C1784       C  0.66400404  0.18382931  0.46096881    -0.27800
C1785       C  0.65316620  0.15347013  0.46779935     0.01800
C1786       C  0.66375866  0.14604512  0.49414680     0.29900
C1787       C  0.68550644  0.16874376  0.51261232    -0.19600
C1788       C  0.69732079  0.19916756  0.50511797    -0.29000
C1789       C  0.68585275  0.20656124  0.47933445     0.43900
C1790       C  0.63206091  0.12982741  0.44648053     0.05100
O1791       O  0.65338929  0.11662386  0.50174951    -0.57500
H1792       H  0.69204025  0.16126364  0.03509609     0.18100
O1793       O  0.69603007  0.23592671  0.47163458    -0.64200
H1794       H  0.65607392  0.18995397  0.44082390     0.16500
C1795       C  0.60453491  0.12741818  0.43835682     0.28800
C1796       C  0.58585662  0.10598017  0.41691660    -0.25100
C1797       C  0.59409546  0.08652657  0.40304811    -0.24400
C1798       C  0.62158169  0.08879746  0.41161046     0.40200
C1799       C  0.64011572  0.11013290  0.43321250    -0.26900
O1800       O  0.59576591  0.14606394  0.45109270    -0.58700
H1801       H  0.56488959  0.10479251  0.41099751     0.15800
O1802       O  0.63108479  0.07092524  0.39848444    -0.60200
H1803       H  0.66137095  0.11189355  0.43898220     0.14300
H1804       H  0.68838737  0.24090143  0.97890903     0.46200
H1805       H  0.58355398  0.13504798  0.46915318     0.41500
H1806       H  0.64289271  0.08224659  0.38033724     0.45000
H1807       H  0.63425579  0.11004372  0.51273460     0.36500
C1808       C  0.83420921  0.30172116  0.21102516    -0.27800
C1809       C  0.84816083  0.33069301  0.19858304     0.01800
C1810       C  0.84150269  0.33479073  0.16842323     0.29900
C1811       C  0.82005340  0.31018708  0.15168660    -0.19600
C1812       C  0.80481300  0.28130228  0.16475215    -0.29000
C1813       C  0.81283276  0.27718065  0.19444466     0.43900
C1814       C  0.86892803  0.35626828  0.21789499     0.05100
O1815       O  0.85510530  0.36282322  0.15545274    -0.57500
H1816       H  0.81456774  0.31399312  0.12885367     0.18100
O1817       O  0.79980080  0.24934634  0.20774563    -0.64200
H1818       H  0.83977371  0.29813260  0.23392035     0.16500
C1819       C  0.85940632  0.36072099  0.24650878     0.28800
C1820       C  0.87988933  0.38292159  0.26604420    -0.25100
C1821       C  0.90997838  0.40129109  0.25739965    -0.24400
C1822       C  0.91925958  0.39770308  0.22820229     0.40200
C1823       C  0.89875101  0.37521326  0.20870202    -0.26900
O1824       O  0.82991755  0.34382010  0.25525041    -0.58700
H1825       H  0.87215586  0.38571147  0.28813611     0.15800
O1826       O  0.94843644  0.41533570  0.21886220    -0.60200
H1827       H  0.90637409  0.37192595  0.18677630     0.14300
H1828       H  0.81231497  0.24073146  0.20131303     0.46200
H1829       H  0.82951899  0.32995271  0.27121079     0.41500
H1830       H  0.95891453  0.40471595  0.22587652     0.45000
H1831       H  0.84253480  0.37150531  0.16145286     0.36500
C1832       C  0.69105278  0.15638433  0.21353756    -0.27800
C1833       C  0.66205679  0.14048254  0.20137814     0.01800
C1834       C  0.65690022  0.14672716  0.17143743     0.29900
C1835       C  0.68059182  0.16894432  0.15426961    -0.19600
C1836       C  0.70965317  0.18529245  0.16661461    -0.29000
C1837       C  0.71474037  0.17848011  0.19649387     0.43900
C1838       C  0.63750369  0.11810124  0.22076242     0.05100
O1839       O  0.62878290  0.13143178  0.15884735    -0.57500
H1840       H  0.67600632  0.17376082  0.13146176     0.18100
O1841       O  0.74285269  0.19279263  0.20916115    -0.64200
H1842       H  0.69532366  0.15203255  0.23667213     0.16500
C1843       C  0.64036327  0.09549883  0.23564022     0.28800
C1844       C  0.61887019  0.07694323  0.25694324    -0.25100
C1845       C  0.59436141  0.08068155  0.26417629    -0.24400
C1846       C  0.59054491  0.10213228  0.24774550     0.40200
C1847       C  0.61219316  0.12078869  0.22643197    -0.26900
O1848       O  0.66408076  0.09132507  0.22931726    -0.58700
H1849       H  0.62204219  0.06011259  0.26841988     0.15800
O1850       O  0.56633384  0.10574823  0.25286869    -0.60200
H1851       H  0.60971369  0.13810266  0.21507783     0.14300
H1852       H  0.74254269  0.20690053  0.22430712     0.46200
H1853       H  0.67684857  0.09797034  0.24785130     0.41500
H1854       H  0.55128160  0.09299868  0.23737551     0.45000
H1855       H  0.62715336  0.11292494  0.15019170     0.36500
C1856       C  0.73413978  0.20613892  0.64741968     0.80000
N1857       N  0.73146760  0.20967973  0.61704517    -0.78300
C1858       C  0.75220068  0.23492598  0.60246201     0.82500
N1859       N  0.77528347  0.25697028  0.61855090    -0.78200
C1860       C  0.77806791  0.25381459  0.64899363     0.82600
N1861       N  0.75735029  0.22829463  0.66320409    -0.79900
C1862       C  0.72244526  0.22268200  0.52335494     0.80000
N1863       N  0.74380027  0.24826154  0.50959828    -0.78300
C1864       C  0.76786146  0.26918160  0.52557000     0.82500
N1865       N  0.77026164  0.26447912  0.55564805    -0.78200
C1866       C  0.74911618  0.23917963  0.56975746     0.82600
N1867       N  0.72535392  0.21815229  0.55350311    -0.79900
C1868       C  0.75329384  0.49123818  0.64873094     0.80000
N1869       N  0.75147716  0.48712587  0.61792986    -0.78300
C1870       C  0.72790796  0.48533583  0.60215567     0.82500
N1871       N  0.70590232  0.48707501  0.61734932    -0.78200
C1872       C  0.70732333  0.49095455  0.64803286     0.82600
N1873       N  0.73114938  0.49314972  0.66353036    -0.79900
C1874       C  0.74394085  0.47413697  0.52214933     0.80000
N1875       N  0.74707268  0.47916896  0.55278821    -0.78300
C1876       C  0.72532768  0.48062688  0.56895447     0.82500
N1877       N  0.70069123  0.47749031  0.55430871    -0.78200
C1878       C  0.69741205  0.47262023  0.52377544     0.82600
N1879       N  0.71907275  0.47086496  0.50793162    -0.79900
C1880       C  0.97847691  0.23211667  0.65095577     0.80000
N1881       N  0.98113902  0.23422061  0.61993124    -0.78300
C1882       C  0.98158208  0.21201301  0.60350639     0.82500
N1883       N  0.97937124  0.18776445  0.61814984    -0.78200
C1884       C  0.97619981  0.18518560  0.64888624     0.82600
N1885       N  0.97584396  0.20740265  0.66500867    -0.79900
C1886       C  0.98485373  0.23671316  0.52327470     0.80000
N1887       N  0.98315893  0.23582509  0.55428113    -0.78300
C1888       C  0.98422024  0.21364397  0.57003409     0.82500
N1889       N  0.98697513  0.19225922  0.55463865    -0.78200
C1890       C  0.98893430  0.19303787  0.52369498     0.82600
N1891       N  0.98780831  0.21530465  0.50828709    -0.79900
O1892       O  0.51033113  0.41021129  0.86884897    -0.88400
C1893       C  0.57539791  0.06160374  0.79029611     1.11700
O1894       O  0.98603949  0.44641883  0.83554055    -1.36200
O1895       O  0.57854109  0.04195105  0.87089525    -0.89800
O1896       O  0.96113445  0.38651321  0.87074686    -0.90500
O1897       O  0.95519242  0.44741583  0.89987865    -0.79300
O1898       O  0.54437864  0.47690516  0.86363007    -1.01400
C1899       C  0.98987205  0.03302432  0.89075290     1.21700
O1900       O  0.95496563  0.47751314  0.83522322    -1.36300
Mn1901     Mn  0.98603140  0.47724441  0.80193542     1.82100
O1902       O  0.98876928  0.00932327  0.89964948    -0.78400
O1903       O  0.55574681  0.06888399  0.86722920    -0.87800
C1904       C  0.98734567  0.03051525  0.77891098     1.12800
C1905       C  0.57502875  0.06361514  0.87934972     1.07500
O1906       O  0.95479453  0.44541010  0.77117245    -0.79300
O1907       O  0.51883542  0.00775732  0.83529469    -1.33000
O1908       O  0.92714127  0.41846067  0.80732196    -0.98600
C1909       C  0.89977961  0.47757036  0.88037706     1.06200
Mn1910     Mn  0.52248955  0.05053586  0.83378441     1.48600
O1911       O  0.89479987  0.45273244  0.86924520    -0.87800
Mn1912     Mn  0.94600995  0.40391617  0.83621969     1.49600
O1913       O  0.50971816  0.41065064  0.80026302    -0.91600
C1914       C  0.54027754  0.47691583  0.89095794     1.19400
C1915       C  0.98552527  0.39044613  0.79136535     1.11500
Mn1916     Mn  0.98640837  0.47801610  0.86831529     1.81000
O1917       O  0.98797813  0.03541964  0.80616645    -0.96800
Mn1918     Mn  0.52528717  0.44324019  0.83491243     1.49300
C1919       C  0.98639713  0.39127661  0.88048907     1.08000
Mn1920     Mn  0.95481052  0.01770380  0.83547587     1.49900
C1921       C  0.89917296  0.47743037  0.79102977     1.10900
O1922       O  0.92738979  0.41906195  0.86459371    -1.02600
O1923       O  0.55477091  0.06659652  0.79895654    -0.92200
C1924       C  0.93202447  0.42383694  0.89185677     1.22200
O1925       O  0.98915488  0.03654469  0.86334265    -1.03000
O1926       O  0.57980715  0.04182898  0.80257400    -0.90400
O1927       O  0.92165118  0.00317002  0.80183346    -0.90000
O1928       O  0.96061897  0.38566405  0.80224753    -0.90000
Mn1929     Mn  0.56057857  0.00912772  0.83632205     1.47900
O1930       O  0.98737487  0.00728376  0.77086516    -0.78500
C1931       C  0.93133584  0.42241374  0.77992960     1.15300
O1932       O  0.51718352  0.47703036  0.89955882    -0.77200
O1933       O  0.51727252  0.47724574  0.77060470    -0.76800
Mn1934     Mn  0.91244894  0.43753814  0.83546979     1.51100
O1935       O  0.92262556  0.00346229  0.87037508    -0.89200
O1936       O  0.54429342  0.47721526  0.80673245    -0.96700
O1937       O  0.89456988  0.45217403  0.80075252    -0.91700
C1938       C  0.54058632  0.47756645  0.77936850     1.13000
C1939       C  0.98907366  0.12077660  0.00084556    -0.27800
C1940       C  0.00307994  0.12798056  0.97209398     0.01800
C1941       C  0.01675414  0.15798673  0.96185750     0.29900
C1942       C  0.01449762  0.17956183  0.97918549    -0.19600
C1943       C  0.99192262  0.16985601  0.50648956    -0.29000
C1944       C  0.98036919  0.14036430  0.51770466     0.43900
C1945       C  0.00061285  0.10371164  0.95166770     0.05100
O1946       O  0.52976353  0.16582809  0.93285993    -0.57500
H1947       H  0.52387375  0.20232836  0.96897972     0.18100
O1948       O  0.96678467  0.13219387  0.54577418    -0.64200
H1949       H  0.97816238  0.09786361  0.00908663     0.16500
C1950       C  0.00755467  0.08186465  0.96164456     0.28800
C1951       C  0.00349584  0.05858049  0.94193717    -0.25100
C1952       C  0.99277656  0.05679564  0.91204562    -0.24400
C1953       C  0.98618980  0.07895693  0.90210369     0.40200
C1954       C  0.98985035  0.10178833  0.92186082    -0.26900
O1955       O  0.01958607  0.08388667  0.99007568    -0.58700
H1956       H  0.00939048  0.04230028  0.94985503     0.15800
O1957       O  0.97639575  0.07877963  0.87291775    -0.60200
H1958       H  0.98387406  0.11797854  0.91382637     0.14300
H1959       H  0.94535696  0.12540062  0.54193690     0.46200
H1960       H  0.99801646  0.06650072  0.50105750     0.41500
H1961       H  0.95434548  0.06973528  0.87456195     0.45000
H1962       H  0.55009483  0.16895809  0.93665929     0.36500
C1963       C  0.97775868  0.30272133  0.99727410    -0.27800
C1964       C  0.98457293  0.30483179  0.96606756     0.01800
C1965       C  0.99156777  0.28418503  0.95306768     0.29900
C1966       C  0.99261826  0.26247966  0.97130076    -0.19600
C1967       C  0.98647202  0.26052157  0.00280331    -0.29000
C1968       C  0.99002119  0.28815270  0.51814323     0.43900
C1969       C  0.98547062  0.32910982  0.94709997     0.05100
O1970       O  0.46511668  0.26913038  0.92573185    -0.57500
H1971       H  0.47091256  0.23338711  0.96362743     0.18100
O1972       O  0.99927041  0.29490462  0.54788659    -0.64200
H1973       H  0.97233327  0.31848503  0.00756864     0.16500
C1974       C  0.95985583  0.33170595  0.94267743     0.28800
C1975       C  0.96062798  0.35262786  0.92161570    -0.25100
C1976       C  0.98695967  0.37160500  0.90509389    -0.24400
C1977       C  0.51249179  0.37345528  0.91643193     0.40200
C1978       C  0.51164532  0.35261127  0.93755482    -0.26900
O1979       O  0.93349303  0.31265465  0.95736032    -0.58700
H1980       H  0.94033581  0.35349753  0.91776157     0.15800
O1981       O  0.53989578  0.39605143  0.90659098    -0.60200
H1982       H  0.53253206  0.35492505  0.94575344     0.14300
H1983       H  0.98107935  0.29078492  0.55950441     0.46200
H1984       H  0.93228389  0.32444864  0.97457929     0.41500
H1985       H  0.54853147  0.40987364  0.92415062     0.45000
H1986       H  0.44297297  0.25680169  0.92740752     0.36500
C1987       C  0.97432047  0.06396365  0.70696176    -0.28600
C1988       C  0.98065467  0.09218673  0.71775470     0.01800
C1989       C  0.48974230  0.10054007  0.74921623     0.29900
C1990       C  0.49230199  0.08014660  0.76803378    -0.19600
C1991       C  0.98624024  0.05165767  0.75681184    -0.29000
C1992       C  0.97713456  0.04374537  0.72622984     0.43900
C1993       C  0.97656779  0.11315881  0.69789695     0.05100
O1994       O  0.49583484  0.12762411  0.76108517    -0.57500
H1995       H  0.49874915  0.08631236  0.79162635     0.18100
O1996       O  0.97034450  0.01621140  0.71509486    -0.64200
H1997       H  0.96650452  0.05730724  0.68378628     0.16500
C1998       C  0.49303879  0.12505064  0.67115538     0.28800
C1999       C  0.98982777  0.14525150  0.65305843    -0.25100
C2000       C  0.97444028  0.15906374  0.66485601    -0.24400
C2001       C  0.95860193  0.14847926  0.69256140     0.40200
C2002       C  0.95962482  0.12563873  0.70870177    -0.26900
O2003       O  0.51155974  0.11493546  0.66111804    -0.58700
H2004       H  0.50464689  0.15609148  0.63393370     0.15800
O2005       O  0.94242892  0.16059410  0.70438332    -0.60200
H2006       H  0.94773871  0.11814463  0.73023230     0.14300
H2007       H  0.94864060  0.00291429  0.71925417     0.46200
H2008       H  0.50053309  0.10094526  0.64419332     0.41500
H2009       H  0.92242644  0.14934301  0.69461002     0.45000
H2010       H  0.51750171  0.14137954  0.75719967     0.36500
C2011       C  0.98237308  0.28034120  0.71881638    -0.27800
C2012       C  0.98014637  0.30340579  0.70452512     0.01800
C2013       C  0.47832697  0.30484047  0.67062575     0.29900
C2014       C  0.47779462  0.28139591  0.65384109    -0.19600
C2015       C  0.97895284  0.25660248  0.66959471    -0.29000
C2016       C  0.98183272  0.25716349  0.70183335     0.43900
C2017       C  0.98180472  0.32786509  0.72356961     0.05100
O2018       O  0.47897849  0.32847817  0.65552169    -0.57500
H2019       H  0.47779743  0.28251354  0.62914416     0.18100
O2020       O  0.98431384  0.23532744  0.71723133    -0.64200
H2021       H  0.98471408  0.28040068  0.74341781     0.16500
C2022       C  0.95583626  0.32869284  0.73146872     0.28800
C2023       C  0.95749013  0.34968385  0.75286045    -0.25100
C2024       C  0.98495608  0.37021524  0.76671517    -0.24400
C2025       C  0.50886109  0.37490025  0.74936617     0.40200
C2026       C  0.50678795  0.35403184  0.72758895    -0.26900
O2027       O  0.92849197  0.30792411  0.71977425    -0.58700
H2028       H  0.93701142  0.34939176  0.75905188     0.15800
O2029       O  0.53637340  0.39955397  0.75505896    -0.60200
H2030       H  0.52697452  0.35736751  0.71638838     0.14300
H2031       H  0.00617504  0.24300271  0.71874936     0.46200
H2032       H  0.92408435  0.31872955  0.70370625     0.41500
H2033       H  0.54675805  0.39224226  0.76861897     0.45000
H2034       H  0.45775694  0.32350997  0.65451429     0.36500
C2035       C  0.86166910  0.50114186  0.94002151    -0.27800
C2036       C  0.83716362  0.47330224  0.94847605     0.01800
C2037       C  0.83470253  0.44695752  0.93623361     0.29900
C2038       C  0.85569359  0.44874358  0.91489237    -0.19600
C2039       C  0.87967566  0.47666287  0.90531890    -0.29000
C2040       C  0.88294001  0.50299413  0.91889947     0.43900
C2041       C  0.81330841  0.47206226  0.96844876     0.05100
O2042       O  0.81147840  0.41929567  0.94455324    -0.57500
H2043       H  0.85271746  0.42803837  0.90541988     0.18100
O2044       O  0.90795021  0.03233478  0.90929543    -0.64200
H2045       H  0.86597731  0.02399640  0.94744541     0.16500
C2046       C  0.82000787  0.48674176  0.99688123     0.28800
C2047       C  0.79792824  0.49069261  0.51290405    -0.25100
C2048       C  0.76728678  0.47159513  0.00403131    -0.24400
C2049       C  0.76059156  0.45641720  0.97577740     0.40200
C2050       C  0.78346585  0.45673489  0.95836110    -0.26900
O2051       O  0.85014725  0.50918660  0.50421581    -0.58700
H2052       H  0.80378868  0.50421569  0.53338903     0.15800
O2053       O  0.73421380  0.94200192  0.96571533    -0.60200
H2054       H  0.78047152  0.94658410  0.93721888     0.14300
H2055       H  0.92391036  0.03772088  0.92474950     0.46200
H2056       H  0.85422991  0.49618661  0.51769795     0.41500
H2057       H  0.73220105  0.95446256  0.94964980     0.45000
H2058       H  0.81914757  0.41298535  0.96213075     0.36500
C2059       C  0.61188918  0.48412258  0.92269100    -0.27800
C2060       C  0.60313055  0.47250935  0.95221456     0.01800
C2061       C  0.57382069  0.46348440  0.96220214     0.29900
C2062       C  0.55369216  0.46598923  0.94252628    -0.19600
C2063       C  0.56225241  0.47674938  0.91256084    -0.29000
C2064       C  0.59178498  0.48604800  0.90283985     0.43900
C2065       C  0.62511261  0.47008500  0.97198728     0.05100
O2066       O  0.56435712  0.45128281  0.99070420    -0.57500
H2067       H  0.53104644  0.45840981  0.95030371     0.18100
O2068       O  0.60014129  0.99278914  0.87260407    -0.64200
H2069       H  0.63454095  0.98960469  0.91353476     0.16500
C2070       C  0.63979678  0.45496367  0.96169495     0.28800
C2071       C  0.66296719  0.45573052  0.97896749    -0.25100
C2072       C  0.67090439  0.46980569  0.50752571    -0.24400
C2073       C  0.65545292  0.48420342  0.51803054     0.40200
C2074       C  0.63337028  0.48506371  0.00008953    -0.26900
O2075       O  0.63126572  0.43897827  0.93495373    -0.58700
H2076       H  0.67401154  0.44403328  0.97049065     0.15800
O2077       O  0.66630301  0.00336732  0.54409339    -0.60200
H2078       H  0.62329984  0.99743008  0.50832188     0.14300
H2079       H  0.61390847  0.01480450  0.87318965     0.46200
H2080       H  0.64756417  0.45096866  0.92016559     0.41500
H2081       H  0.68145666  0.02402382  0.53776908     0.45000
H2082       H  0.55667586  0.42950210  0.98813080     0.36500
C2083       C  0.80940253  0.50523637  0.71190283    -0.27800
C2084       C  0.82121347  0.48731128  0.70247844     0.01800
C2085       C  0.81194143  0.47208101  0.67445039     0.29900
C2086       C  0.79065128  0.47441923  0.65656291    -0.19600
C2087       C  0.77795826  0.49152441  0.66647865    -0.29000
C2088       C  0.78782107  0.50727113  0.69431471     0.43900
C2089       C  0.84250762  0.48410813  0.72264854     0.05100
O2090       O  0.82323294  0.45451775  0.66457042    -0.57500
H2091       H  0.78336824  0.46204113  0.63534763     0.18100
O2092       O  0.77697967  0.52521658  0.70426135    -0.64200
H2093       H  0.81645872  0.51718747  0.73338072     0.16500
C2094       C  0.87023700  0.50917121  0.73039046     0.28800
C2095       C  0.88887371  0.50630601  0.75169057    -0.25100
C2096       C  0.88016273  0.47862930  0.76607135    -0.24400
C2097       C  0.85277300  0.45323383  0.75730763     0.40200
C2098       C  0.83422358  0.45616586  0.73581184    -0.26900
O2099       O  0.88340699  0.03693688  0.71412097    -0.58700
H2100       H  0.91341281  0.02647410  0.75530313     0.15800
O2101       O  0.84309546  0.42579103  0.77067146    -0.60200
H2102       H  0.81281276  0.43672219  0.73012469     0.14300
H2103       H  0.76187993  0.51329137  0.72011964     0.46200
H2104       H  0.88044461  0.04975561  0.72889299     0.41500
H2105       H  0.84863444  0.41469675  0.75609700     0.45000
H2106       H  0.84257585  0.46857717  0.65458396     0.36500
C2107       C  0.62963487  0.47522832  0.67140820    -0.27800
C2108       C  0.63579367  0.49043713  0.69933952     0.01800
C2109       C  0.66574729  0.50710121  0.70943116     0.29900
C2110       C  0.68879287  0.50739403  0.69232940    -0.19600
C2111       C  0.68263380  0.49158327  0.66472200    -0.29000
C2112       C  0.65271024  0.47564862  0.65414646     0.43900
C2113       C  0.61076217  0.48678155  0.71904422     0.05100
O2114       O  0.67389094  0.01541152  0.74165772    -0.57500
H2115       H  0.71158762  0.52000094  0.70077794     0.18100
O2116       O  0.64550910  0.45940721  0.62761727    -0.64200
H2117       H  0.60669297  0.46200764  0.66351639     0.16500
C2118       C  0.58883748  0.49330233  0.70849621     0.28800
C2119       C  0.56538052  0.48925739  0.72787165    -0.25100
C2120       C  0.56375110  0.47924701  0.75806610    -0.24400
C2121       C  0.58573600  0.47256184  0.76839123     0.40200
C2122       C  0.60872263  0.47617618  0.74891229    -0.26900
O2123       O  0.59056569  0.50433299  0.67958927    -0.58700
H2124       H  0.54903487  0.49489107  0.71957500     0.15800
O2125       O  0.58543958  0.46306915  0.79776485    -0.60200
H2126       H  0.62515520  0.47067217  0.75726578     0.14300
H2127       H  0.64180564  0.43929441  0.63372953     0.46200
H2128       H  0.60583630  0.03065395  0.68585866     0.41500
H2129       H  0.57539646  0.44091995  0.79661557     0.45000
H2130       H  0.67951952  0.03678552  0.73998600     0.36500
C2131       C  0.86988110  0.35195668  0.92647127    -0.27800
C2132       C  0.86579071  0.36183658  0.95482727     0.01800
C2133       C  0.88493588  0.39186716  0.96347640     0.29900
C2134       C  0.90724534  0.41182736  0.94326290    -0.19600
C2135       C  0.91043891  0.40218542  0.91422522    -0.29000
C2136       C  0.89172052  0.37179843  0.90615212     0.43900
C2137       C  0.84092323  0.34032992  0.97453375     0.05100
O2138       O  0.88154187  0.40204234  0.99123769    -0.57500
H2139       H  0.92134684  0.43506080  0.94987583     0.18100
O2140       O  0.89492993  0.36105525  0.87863524    -0.64200
H2141       H  0.85574555  0.32871002  0.91987820     0.16500
C2142       C  0.81115590  0.32644340  0.96397043     0.28800
C2143       C  0.78812778  0.30319929  0.98080874    -0.25100
C2144       C  0.79199672  0.29600891  0.50986214    -0.24400
C2145       C  0.82406520  0.30819917  0.01951205     0.40200
C2146       C  0.84706861  0.33152549  0.00261544    -0.26900
O2147       O  0.80441014  0.33567900  0.93723556    -0.58700
H2148       H  0.76542151  0.29262447  0.97207082     0.15800
O2149       O  0.82995193  0.29998910  0.54536483    -0.60200
H2150       H  0.86994669  0.34194341  0.01085167     0.14300
H2151       H  0.87906057  0.36042354  0.86533459     0.46200
H2152       H  0.80162420  0.32040945  0.92186487     0.41500
H2153       H  0.83379311  0.28405092  0.53801881     0.45000
H2154       H  0.86689196  0.41308645  0.48757972     0.36500
C2155       C  0.66665424  0.18140506  0.95975356    -0.27800
C2156       C  0.65398384  0.15121157  0.96841529     0.01800
C2157       C  0.66297455  0.14424957  0.99615745     0.29900
C2158       C  0.68495691  0.16721414  0.01423725    -0.19600
C2159       C  0.69851646  0.19740304  0.00499045    -0.29000
C2160       C  0.68860839  0.20436444  0.97775525     0.43900
C2161       C  0.63241156  0.12727169  0.94764867     0.05100
O2162       O  0.65073636  0.11502689  0.00558963    -0.57500
H2163       H  0.69384752  0.16246532  0.53231993     0.18100
O2164       O  0.70039524  0.23352382  0.96827509    -0.64200
H2165       H  0.65998746  0.18718889  0.93851611     0.16500
C2166       C  0.60644733  0.12698579  0.93730222     0.28800
C2167       C  0.58774035  0.10572184  0.91579730    -0.25100
C2168       C  0.59436995  0.08430104  0.90398710    -0.24400
C2169       C  0.62009581  0.08422096  0.91503540     0.40200
C2170       C  0.63868753  0.10544509  0.93672943    -0.26900
O2171       O  0.59933984  0.14767865  0.94780224    -0.58700
H2172       H  0.56808745  0.10633486  0.90812025     0.15800
O2173       O  0.62778128  0.06401516  0.90442208    -0.60200
H2174       H  0.65869814  0.10547203  0.94430580     0.14300
H2175       H  0.68345915  0.24177334  0.48359900     0.46200
H2176       H  0.58543507  0.13772712  0.96515421     0.41500
H2177       H  0.64178362  0.07432136  0.88722159     0.45000
H2178       H  0.63157156  0.11011133  0.01565049     0.36500
C2179       C  0.83115630  0.29897451  0.71350421    -0.27800
C2180       C  0.84426232  0.32831895  0.70198312     0.01800
C2181       C  0.83643389  0.33288768  0.67248466     0.29900
C2182       C  0.81564164  0.30839489  0.65516088    -0.19600
C2183       C  0.80186440  0.27900801  0.66695559    -0.29000
C2184       C  0.81015273  0.27450237  0.69639371     0.43900
C2185       C  0.86598451  0.35382719  0.72107073     0.05100
O2186       O  0.84842862  0.36127138  0.66062726    -0.57500
H2187       H  0.80965193  0.31261784  0.63274413     0.18100
O2188       O  0.79788808  0.24633953  0.70884995    -0.64200
H2189       H  0.83734361  0.29496199  0.73591921     0.16500
C2190       C  0.85852249  0.35741329  0.75105897     0.28800
C2191       C  0.87986768  0.38031711  0.76946654    -0.25100
C2192       C  0.90895742  0.40012609  0.75856785    -0.24400
C2193       C  0.91614837  0.39714843  0.72822265     0.40200
C2194       C  0.89473636  0.37411225  0.70975400    -0.26900
O2195       O  0.83012066  0.33911873  0.76226699    -0.58700
H2196       H  0.87356838  0.38246647  0.79252326     0.15800
O2197       O  0.94417690  0.41604801  0.71660065    -0.60200
H2198       H  0.90089280  0.37157161  0.68677739     0.14300
H2199       H  0.81096575  0.23854649  0.70189612     0.46200
H2200       H  0.83210988  0.32598404  0.77752873     0.41500
H2201       H  0.95599128  0.40615200  0.72112689     0.45000
H2202       H  0.83533849  0.36882064  0.66820888     0.36500
C2203       C  0.69321226  0.14603047  0.70734586    -0.27800
C2204       C  0.66321818  0.13631716  0.69998189     0.01800
C2205       C  0.65676266  0.14770432  0.67363153     0.29900
C2206       C  0.68014225  0.16933358  0.65575435    -0.19600
C2207       C  0.71017358  0.18019487  0.66398805    -0.29000
C2208       C  0.71663567  0.16790832  0.68965016     0.43900
C2209       C  0.63905505  0.11582646  0.72101426     0.05100
O2210       O  0.62768269  0.13847455  0.66566275    -0.57500
H2211       H  0.67473522  0.17859094  0.63616137     0.18100
O2212       O  0.74573956  0.17694426  0.69740970    -0.64200
H2213       H  0.69855722  0.13748637  0.72755216     0.16500
C2214       C  0.63628339  0.08839857  0.73011587     0.28800
C2215       C  0.61477315  0.07057845  0.75187220    -0.25100
C2216       C  0.59584411  0.07976538  0.76516798    -0.24400
C2217       C  0.59800715  0.10683177  0.75515077     0.40200
C2218       C  0.61961084  0.12464982  0.73342649    -0.26900
O2219       O  0.65419121  0.07863581  0.71746426    -0.58700
H2220       H  0.61332388  0.04967933  0.75866697     0.15800
O2221       O  0.58025644  0.11692499  0.76745261    -0.60200
H2222       H  0.62175460  0.14591580  0.72687548     0.14300
H2223       H  0.74977950  0.18915850  0.71613575     0.46200
H2224       H  0.66858081  0.08094267  0.73371805     0.41500
H2225       H  0.56298727  0.10985616  0.75331400     0.45000
H2226       H  0.62100317  0.11999311  0.65350696     0.36500
C2227       C  0.73219403  0.71120694  0.14988936     0.80000
N2228       N  0.72985164  0.71251342  0.11903880    -0.78300
C2229       C  0.75197677  0.73562682  0.10288710     0.82500
N2230       N  0.77640682  0.75743372  0.11770640    -0.78200
C2231       C  0.77913339  0.75613188  0.14840956     0.82600
N2232       N  0.75687600  0.73302049  0.16417916    -0.79900
C2233       C  0.72250625  0.72080216  0.02351891     0.80000
N2234       N  0.74462891  0.74531343  0.00897651    -0.78300
C2235       C  0.76912929  0.76612728  0.02445377     0.82500
N2236       N  0.77115038  0.76243327  0.05482879    -0.78200
C2237       C  0.74922564  0.73824600  0.06976411     0.82600
N2238       N  0.72498296  0.71723208  0.05401702    -0.79900
C2239       C  0.75388195  0.99189245  0.14811532     0.80000
N2240       N  0.75249171  0.98809236  0.11730686    -0.78300
C2241       C  0.72970801  0.98752949  0.10114077     0.82500
N2242       N  0.70804678  0.99024931  0.11594276    -0.78200
C2243       C  0.70904495  0.99385298  0.14667238     0.82600
N2244       N  0.73210332  0.99471914  0.16251942    -0.79900
C2245       C  0.74637313  0.97616649  0.02140217     0.80000
N2246       N  0.74917464  0.98099293  0.05209559    -0.78300
C2247       C  0.72759335  0.98306834  0.06792750     0.82500
N2248       N  0.70346748  0.98068660  0.05293871    -0.78200
C2249       C  0.70051743  0.97601390  0.02239735     0.82600
N2250       N  0.72198226  0.97368272  0.00684192    -0.79900
C2251       C  0.97062641  0.72931403  0.14932751     0.80000
N2252       N  0.97552173  0.73182183  0.11861759    -0.78300
C2253       C  0.97776651  0.71017972  0.10314269     0.82500
N2254       N  0.97553793  0.68628009  0.11851172    -0.78200
C2255       C  0.97055471  0.68343972  0.14904441     0.82600
N2256       N  0.96817053  0.70504128  0.16430081    -0.79900
C2257       C  0.98520251  0.73530643  0.02258292     0.80000
N2258       N  0.98164469  0.73407088  0.05341674    -0.78300
C2259       C  0.98245911  0.71216038  0.06993536     0.82500
N2260       N  0.98677517  0.69132592  0.05549648    -0.78200
C2261       C  0.99058256  0.69241013  0.02476445     0.82600
N2262       N  0.98971340  0.71442804  0.00853215    -0.79900
O2263       O  0.51089834  0.91017537  0.36879099    -0.88400
C2264       C  0.57340135  0.56184872  0.29042825     1.11700
O2265       O  0.98683957  0.94636597  0.33521434    -1.36200
O2266       O  0.57744775  0.54232157  0.37087474    -0.89800
O2267       O  0.96130616  0.88641606  0.37014796    -0.90500
O2268       O  0.95584470  0.94766599  0.39951448    -0.79300
O2269       O  0.54493593  0.97681890  0.36402690    -1.01400
C2270       C  0.98797981  0.53253114  0.39095524     1.21700
O2271       O  0.95616466  0.97791539  0.33463374    -1.36300
Mn2272     Mn  0.98735153  0.97750166  0.30159991     1.82100
O2273       O  0.98720309  0.50898726  0.39972424    -0.78400
O2274       O  0.55404771  0.56873743  0.36816722    -0.87800
C2275       C  0.98570981  0.53060295  0.27922030     1.12800
C2276       C  0.57371204  0.56371822  0.37978878     1.07500
O2277       O  0.95651164  0.94605175  0.27086139    -0.79300
O2278       O  0.51748258  0.50778190  0.33574813    -1.33000
O2279       O  0.92793129  0.91875585  0.30649936    -0.98600
C2280       C  0.90127433  0.97848548  0.37975501     1.06200
Mn2281     Mn  0.52070822  0.55038078  0.33462609     1.48600
O2282       O  0.89599465  0.95352798  0.36864135    -0.87800
Mn2283     Mn  0.94648929  0.90413496  0.33576312     1.49600
O2284       O  0.51051350  0.91055366  0.30029469    -0.91600
C2285       C  0.54080983  0.97681783  0.39135570     1.19400
C2286       C  0.98516827  0.88976074  0.29086631     1.11500
Mn2287     Mn  0.98734797  0.97818373  0.36798956     1.81000
O2288       O  0.98654053  0.53535004  0.30650184    -0.96800
Mn2289     Mn  0.52612343  0.94336237  0.33500927     1.49300
C2290       C  0.98629561  0.89025720  0.37966881     1.08000
Mn2291     Mn  0.95333887  0.51762712  0.33564195     1.49900
C2292       C  0.90049808  0.97809114  0.29016915     1.10900
O2293       O  0.92817072  0.91954037  0.36403820    -1.02600
O2294       O  0.55285925  0.56667467  0.29975995    -0.92200
C2295       C  0.93271437  0.92409970  0.39134666     1.22200
O2296       O  0.98757181  0.53635602  0.36357565    -1.03000
O2297       O  0.57818679  0.54216795  0.30237496    -0.90400
O2298       O  0.92024581  0.50308801  0.30193001    -0.90000
O2299       O  0.96069331  0.88560780  0.30216759    -0.90000
Mn2300     Mn  0.55939687  0.50948489  0.33641300     1.47900
O2301       O  0.98601391  0.50754213  0.27097012    -0.78500
C2302       C  0.93293465  0.92302543  0.27916609     1.15300
O2303       O  0.51793723  0.97746712  0.39987347    -0.77200
O2304       O  0.51882313  0.97830817  0.27099872    -0.76800
Mn2305     Mn  0.91347493  0.93811816  0.33476763     1.51100
O2306       O  0.92103312  0.50338379  0.37036737    -0.89200
O2307       O  0.54575665  0.97757405  0.30696228    -0.96700
O2308       O  0.89576827  0.95282384  0.29997091    -0.91700
C2309       C  0.54201318  0.97832429  0.27959375     1.13000
C2310       C  0.98297148  0.61796618  0.50132212    -0.27800
C2311       C  0.99803136  0.62517583  0.47315195     0.01800
C2312       C  0.01318400  0.65534028  0.46333016     0.29900
C2313       C  0.01145141  0.67724153  0.48048278    -0.19600
C2314       C  0.99476039  0.66947392  0.00864781    -0.29000
C2315       C  0.98227821  0.63981534  0.01974377     0.43900
C2316       C  0.99550486  0.60097553  0.45278932     0.05100
O2317       O  0.52745532  0.66259733  0.43643614    -0.57500
H2318       H  0.52134936  0.69949152  0.47176614     0.18100
O2319       O  0.96728889  0.63151050  0.04709613    -0.64200
H2320       H  0.97095396  0.59491211  0.50916785     0.16500
C2321       C  0.00172701  0.57871859  0.46298526     0.28800
C2322       C  0.99873996  0.55616781  0.44288986    -0.25100
C2323       C  0.98971945  0.55552390  0.41248063    -0.24400
C2324       C  0.98339558  0.57783527  0.40247322     0.40200
C2325       C  0.98604607  0.59996933  0.42258635    -0.26900
O2326       O  0.01209419  0.57967272  0.49204286    -0.58700
H2327       H  0.00414666  0.53957573  0.45094775     0.15800
O2328       O  0.97499211  0.57857763  0.37288778    -0.60200
H2329       H  0.98055398  0.61648562  0.41445726     0.14300
H2330       H  0.94599909  0.62425313  0.04197147     0.46200
H2331       H  0.99823977  0.56427856  0.00267781     0.41500
H2332       H  0.95284522  0.56900260  0.37338212     0.45000
H2333       H  0.54707041  0.66444027  0.44138367     0.36500
C2334       C  0.98838678  0.80825018  0.49700563    -0.27800
C2335       C  0.98390054  0.80366219  0.46548230     0.01800
C2336       C  0.97997098  0.77702072  0.45264270     0.29900
C2337       C  0.98109088  0.75552458  0.47120400    -0.19600
C2338       C  0.98566039  0.75986650  0.50292263    -0.29000
C2339       C  0.98795965  0.78563416  0.01675746     0.43900
C2340       C  0.98423295  0.82708286  0.44578682     0.05100
O2341       O  0.47353929  0.77163536  0.42269544    -0.57500
H2342       H  0.47620494  0.73480948  0.46141642     0.18100
O2343       O  0.99469841  0.79189751  0.04710445    -0.64200
H2344       H  0.99152445  0.82881771  0.50703139     0.16500
C2345       C  0.95749816  0.82384833  0.43388417     0.28800
C2346       C  0.95847214  0.84509095  0.41326420    -0.25100
C2347       C  0.98603911  0.86976210  0.40387653    -0.24400
C2348       C  0.51258807  0.87339650  0.41676030     0.40200
C2349       C  0.51154053  0.85228177  0.43769664    -0.26900
O2350       O  0.93035917  0.79945530  0.44153310    -0.58700
H2351       H  0.93751571  0.84167847  0.40399505     0.15800
O2352       O  0.54007149  0.89654922  0.40784425    -0.60200
H2353       H  0.53231556  0.85481736  0.44653901     0.14300
H2354       H  0.97537873  0.78650762  0.05711299     0.46200
H2355       H  0.92353557  0.80575372  0.45975285     0.41500
H2356       H  0.54821922  0.90972584  0.42591460     0.45000
H2357       H  0.45139697  0.76004815  0.42062631     0.36500
C2358       C  0.97149191  0.56397002  0.20777574    -0.28600
C2359       C  0.97626668  0.59150079  0.21911926     0.01800
C2360       C  0.48471225  0.59880192  0.24933609     0.29900
C2361       C  0.48843025  0.57915866  0.26827366    -0.19600
C2362       C  0.98350281  0.55146932  0.25750001    -0.29000
C2363       C  0.97502484  0.54397042  0.22672106     0.43900
C2364       C  0.97229187  0.61254548  0.19922408     0.05100
O2365       O  0.49058286  0.62594733  0.26082238    -0.57500
H2366       H  0.49543779  0.58587814  0.29164816     0.18100
O2367       O  0.96968387  0.51708945  0.21502309    -0.64200
H2368       H  0.96448602  0.55772816  0.18432997     0.16500
C2369       C  0.48547391  0.62117110  0.17062129     0.28800
C2370       C  0.98673792  0.64559187  0.15506527    -0.25100
C2371       C  0.96953496  0.65791806  0.16566615    -0.24400
C2372       C  0.95247865  0.64627456  0.19254826     0.40200
C2373       C  0.95388782  0.62374754  0.20900817    -0.26900
O2374       O  0.50312940  0.61028291  0.15990666    -0.58700
H2375       H  0.49645084  0.65155021  0.13296470     0.15800
O2376       O  0.93456882  0.65689507  0.20314006    -0.60200
H2377       H  0.94098506  0.61537025  0.22988170     0.14300
H2378       H  0.94790813  0.50313040  0.21808416     0.46200
H2379       H  0.49135194  0.59621381  0.14329647     0.41500
H2380       H  0.91484037  0.64422229  0.19322751     0.45000
H2381       H  0.51172101  0.64021844  0.25519721     0.36500
C2382       C  0.95521644  0.77104140  0.21177631    -0.27800
C2383       C  0.97291037  0.80091282  0.20218661     0.01800
C2384       C  0.48945216  0.80737158  0.17459692     0.29900
C2385       C  0.48756855  0.78372535  0.15709026    -0.19600
C2386       C  0.96974460  0.75356465  0.16675935    -0.29000
C2387       C  0.95373308  0.74750505  0.19450760     0.43900
C2388       C  0.97642496  0.82544000  0.22253299     0.05100
O2389       O  0.50756535  0.83636326  0.16491281    -0.57500
H2390       H  0.50067807  0.78894371  0.13631479     0.18100
O2391       O  0.93617234  0.71861847  0.20477326    -0.64200
H2392       H  0.94318868  0.76599507  0.23325711     0.16500
C2393       C  0.95147014  0.82759843  0.23168630     0.28800
C2394       C  0.95489336  0.84912576  0.25320106    -0.25100
C2395       C  0.98311560  0.86891496  0.26616924    -0.24400
C2396       C  0.50805441  0.86653386  0.25743882     0.40200
C2397       C  0.50475028  0.84518591  0.23564870    -0.26900
O2398       O  0.92351522  0.80836554  0.22013378    -0.58700
H2399       H  0.93514200  0.84996965  0.26000806     0.15800
O2400       O  0.53556048  0.88384916  0.27075934    -0.60200
H2401       H  0.52394196  0.84291601  0.22990298     0.14300
H2402       H  0.94798998  0.71611677  0.22119379     0.46200
H2403       H  0.92064302  0.81962804  0.20336197     0.41500
H2404       H  0.53560659  0.87222511  0.28881678     0.45000
H2405       H  0.49428974  0.84124768  0.15286894     0.36500
C2406       C  0.86478132  0.00323162  0.44011391    -0.27800
C2407       C  0.83976475  0.97571828  0.44836952     0.01800
C2408       C  0.83651210  0.94910144  0.43595963     0.29900
C2409       C  0.85716090  0.95034600  0.41447070    -0.19600
C2410       C  0.88156930  0.97799037  0.40493730    -0.29000
C2411       C  0.88570868  0.00453829  0.41885842     0.43900
C2412       C  0.81605682  0.97513638  0.46804910     0.05100
O2413       O  0.81278440  0.92172220  0.44419707    -0.57500
H2414       H  0.85355125  0.92947715  0.40479783     0.18100
O2415       O  0.90396801  0.53241390  0.40625584    -0.64200
H2416       H  0.86219336  0.52399816  0.44469198     0.16500
C2417       C  0.82262049  0.98909327  0.49685335     0.28800
C2418       C  0.79994837  0.99020227  0.01362885    -0.25100
C2419       C  0.77014639  0.97536389  0.50328792    -0.24400
C2420       C  0.76369045  0.96119948  0.47445215     0.40200
C2421       C  0.78648834  0.96113641  0.45726046    -0.26900
O2422       O  0.85187587  0.00632732  0.00648345    -0.58700
H2423       H  0.80574088  0.00280809  0.03473006     0.15800
O2424       O  0.73164591  0.43791704  0.46808240    -0.60200
H2425       H  0.77801209  0.44377442  0.43862838     0.14300
H2426       H  0.91991109  0.53963357  0.42200393     0.46200
H2427       H  0.85530245  0.99144241  0.01737558     0.41500
H2428       H  0.72825451  0.44913531  0.45163949     0.45000
H2429       H  0.82006194  0.91510361  0.46185777     0.36500
C2430       C  0.61214500  0.98297550  0.42290919    -0.27800
C2431       C  0.60365263  0.97208691  0.45271000     0.01800
C2432       C  0.57458166  0.96386113  0.46291834     0.29900
C2433       C  0.55444317  0.96636376  0.44319150    -0.19600
C2434       C  0.56274611  0.97643335  0.41298473    -0.29000
C2435       C  0.59207551  0.98500233  0.40308340     0.43900
C2436       C  0.62580552  0.96997647  0.47263003     0.05100
O2437       O  0.56536563  0.95253980  0.49175796    -0.57500
H2438       H  0.53200271  0.95942133  0.45118617     0.18100
O2439       O  0.59941152  0.49271381  0.37409496    -0.64200
H2440       H  0.63269517  0.48786069  0.41533281     0.16500
C2441       C  0.64061566  0.95486490  0.46262386     0.28800
C2442       C  0.66419192  0.95630252  0.47977838    -0.25100
C2443       C  0.67439392  0.97372622  0.00597848    -0.24400
C2444       C  0.65959170  0.98885295  0.01621638     0.40200
C2445       C  0.63425831  0.98543119  0.50048282    -0.26900
O2446       O  0.63185949  0.93828543  0.43625737    -0.58700
H2447       H  0.67538440  0.94469315  0.47146249     0.15800
O2448       O  0.66492319  0.50193947  0.04408304    -0.60200
H2449       H  0.62248878  0.49708415  0.00809655     0.14300
H2450       H  0.61380091  0.51453387  0.37566531     0.46200
H2451       H  0.64809313  0.94986535  0.42126980     0.41500
H2452       H  0.68043744  0.52259600  0.03815866     0.45000
H2453       H  0.55728912  0.93063312  0.48982738     0.36500
C2454       C  0.80935067  0.00510258  0.21159814    -0.27800
C2455       C  0.82090734  0.98683839  0.20248239     0.01800
C2456       C  0.81104804  0.97100392  0.17476214     0.29900
C2457       C  0.78985119  0.97345226  0.15680803    -0.19600
C2458       C  0.77789266  0.99134157  0.16624087    -0.29000
C2459       C  0.78805822  0.00741575  0.19382980     0.43900
C2460       C  0.84281070  0.98427889  0.22247595     0.05100
O2461       O  0.82183095  0.95293873  0.16509413    -0.57500
H2462       H  0.78223569  0.96075485  0.13580063     0.18100
O2463       O  0.77797101  0.02614742  0.20324725    -0.64200
H2464       H  0.81650622  0.01730765  0.23291898     0.16500
C2465       C  0.86887230  0.01006880  0.23266934     0.28800
C2466       C  0.88790735  0.00747813  0.25365897    -0.25100
C2467       C  0.88138320  0.97933220  0.26528158    -0.24400
C2468       C  0.85599506  0.95335542  0.25379959     0.40200
C2469       C  0.83689945  0.95602421  0.23279839    -0.26900
O2470       O  0.87776445  0.53787083  0.21943985    -0.58700
H2471       H  0.90888272  0.52778261  0.25949428     0.15800
O2472       O  0.84893405  0.92530363  0.26365660    -0.60200
H2473       H  0.81691008  0.93593481  0.22520775     0.14300
H2474       H  0.76284833  0.01483018  0.21929553     0.46200
H2475       H  0.87226491  0.54795940  0.23528024     0.41500
H2476       H  0.85550916  0.91697117  0.24695321     0.45000
H2477       H  0.84114878  0.96661854  0.15486279     0.36500
C2478       C  0.63247186  0.98288111  0.16842059    -0.27800
C2479       C  0.63772778  0.99364752  0.19852128     0.01800
C2480       C  0.66710544  0.00681171  0.21028727     0.29900
C2481       C  0.69007171  0.00731669  0.19288476    -0.19600
C2482       C  0.68465708  0.99538930  0.16322679    -0.29000
C2483       C  0.65560484  0.98378489  0.15074564     0.43900
C2484       C  0.61229525  0.98908041  0.21834652     0.05100
O2485       O  0.67104111  0.51423574  0.24043095    -0.57500
H2486       H  0.71222241  0.01690418  0.20286437     0.18100
O2487       O  0.64918133  0.97231848  0.12172574    -0.64200
H2488       H  0.61006746  0.97259793  0.15894417     0.16500
C2489       C  0.59121730  0.99728356  0.20897670     0.28800
C2490       C  0.56767561  0.99264686  0.22856550    -0.25100
C2491       C  0.56510841  0.98043763  0.25789725    -0.24400
C2492       C  0.58608036  0.97197293  0.26701633     0.40200
C2493       C  0.60906927  0.97602478  0.24725683    -0.26900
O2494       O  0.59386298  0.01056416  0.18110262    -0.58700
H2495       H  0.55205779  0.99962243  0.22120106     0.15800
O2496       O  0.58474226  0.96022036  0.29550202    -0.60200
H2497       H  0.62459792  0.96895861  0.25470293     0.14300
H2498       H  0.64190209  0.95060342  0.12412904     0.46200
H2499       H  0.60541702  0.52836290  0.18512361     0.41500
H2500       H  0.57420935  0.93818914  0.29260535     0.45000
H2501       H  0.67479631  0.53495887  0.23791425     0.36500
C2502       C  0.87153568  0.85119268  0.42544515    -0.27800
C2503       C  0.86721705  0.86047107  0.45404815     0.01800
C2504       C  0.88587087  0.89052720  0.46297576     0.29900
C2505       C  0.90789835  0.91105171  0.44283530    -0.19600
C2506       C  0.91129376  0.90197500  0.41357263    -0.29000
C2507       C  0.89307403  0.87158204  0.40520752     0.43900
C2508       C  0.84259296  0.83833339  0.47368338     0.05100
O2509       O  0.88227067  0.90017261  0.49095715    -0.57500
H2510       H  0.92163182  0.93425714  0.44970867     0.18100
O2511       O  0.89648337  0.86135371  0.37746468    -0.64200
H2512       H  0.85781307  0.82796786  0.41859391     0.16500
C2513       C  0.81276828  0.82394974  0.46321747     0.28800
C2514       C  0.79000452  0.80047836  0.48012090    -0.25100
C2515       C  0.79374975  0.79210817  0.00813475    -0.24400
C2516       C  0.82631492  0.80593007  0.51854809     0.40200
C2517       C  0.84904611  0.82955156  0.50163004    -0.26900
O2518       O  0.80567007  0.83298755  0.43656342    -0.58700
H2519       H  0.76725499  0.78967124  0.47148013     0.15800
O2520       O  0.83110064  0.79669730  0.04478904    -0.60200
H2521       H  0.87196864  0.84028366  0.50977998     0.14300
H2522       H  0.88045828  0.86058653  0.36431979     0.46200
H2523       H  0.80314962  0.81785790  0.42113279     0.41500
H2524       H  0.83487630  0.78050190  0.03820945     0.45000
H2525       H  0.86989566  0.90820460  0.98963712     0.36500
C2526       C  0.66632635  0.68097977  0.46119385    -0.27800
C2527       C  0.65386944  0.65058464  0.46898950     0.01800
C2528       C  0.66356327  0.64304933  0.49594871     0.29900
C2529       C  0.68604604  0.66560897  0.51397803    -0.19600
C2530       C  0.69942949  0.69597155  0.50548573    -0.29000
C2531       C  0.68878022  0.70353898  0.47918007     0.43900
C2532       C  0.63202834  0.62701821  0.44799875     0.05100
O2533       O  0.65158684  0.61364070  0.50460513    -0.57500
H2534       H  0.69387315  0.66048541  0.03184683     0.18100
O2535       O  0.70035696  0.73291472  0.47058538    -0.64200
H2536       H  0.65918152  0.68724967  0.44057886     0.16500
C2537       C  0.60608043  0.62701028  0.43800315     0.28800
C2538       C  0.58706159  0.60589746  0.41649473    -0.25100
C2539       C  0.59335813  0.58436478  0.40433830    -0.24400
C2540       C  0.61911124  0.58408227  0.41497699     0.40200
C2541       C  0.63799808  0.60513740  0.43661747    -0.26900
O2542       O  0.59922949  0.64775448  0.44890841    -0.58700
H2543       H  0.56741967  0.60668442  0.40911568     0.15800
O2544       O  0.62653150  0.56378921  0.40405097    -0.60200
H2545       H  0.65799546  0.60494651  0.44382825     0.14300
H2546       H  0.68309883  0.74055689  0.98684155     0.46200
H2547       H  0.58603241  0.63802168  0.46678890     0.41500
H2548       H  0.64033462  0.57405275  0.38670188     0.45000
H2549       H  0.63271706  0.60850303  0.51544779     0.36500
C2550       C  0.83458290  0.80047252  0.21125528    -0.27800
C2551       C  0.84961495  0.82942989  0.19869339     0.01800
C2552       C  0.84329952  0.83371191  0.16842315     0.29900
C2553       C  0.82123217  0.80942667  0.15174453    -0.19600
C2554       C  0.80489863  0.78069277  0.16498843    -0.29000
C2555       C  0.81241853  0.77630009  0.19482451     0.43900
C2556       C  0.87070228  0.85491053  0.21811983     0.05100
O2557       O  0.85776054  0.86168140  0.15530373    -0.57500
H2558       H  0.81607815  0.81342192  0.12883983     0.18100
O2559       O  0.79795579  0.74858734  0.20849111    -0.64200
H2560       H  0.83975901  0.79664011  0.23422206     0.16500
C2561       C  0.86137093  0.85942835  0.24683783     0.28800
C2562       C  0.88182967  0.88202829  0.26607188    -0.25100
C2563       C  0.91173522  0.90085031  0.25707437    -0.24400
C2564       C  0.92089628  0.89706877  0.22788090     0.40200
C2565       C  0.90042693  0.87412997  0.20868283    -0.26900
O2566       O  0.83199546  0.84236964  0.25589277    -0.58700
H2567       H  0.87415635  0.88488223  0.28817059     0.15800
O2568       O  0.94989316  0.91507139  0.21818133    -0.60200
H2569       H  0.90798106  0.87085804  0.18671253     0.14300
H2570       H  0.80961317  0.73888599  0.20256265     0.46200
H2571       H  0.83196269  0.82898680  0.27221247     0.41500
H2572       H  0.96082843  0.90492338  0.22521957     0.45000
H2573       H  0.84608914  0.87126479  0.16159387     0.36500
C2574       C  0.68027367  0.66909027  0.21612657    -0.27800
C2575       C  0.66036522  0.64158245  0.20264586     0.01800
C2576       C  0.66407500  0.63664506  0.17182568     0.29900
C2577       C  0.68740900  0.65948724  0.15468839    -0.19600
C2578       C  0.70758132  0.68718556  0.16819247    -0.29000
C2579       C  0.70371096  0.69176536  0.19930860     0.43900
C2580       C  0.63577048  0.61860874  0.22141249     0.05100
O2581       O  0.64451345  0.60995928  0.15810312    -0.57500
H2582       H  0.68985014  0.65542445  0.13089530     0.18100
O2583       O  0.72236477  0.71845539  0.21355984    -0.64200
H2584       H  0.67754215  0.67302026  0.23990233     0.16500
C2585       C  0.63710161  0.59387615  0.23290481     0.28800
C2586       C  0.61591216  0.57486195  0.25436560    -0.25100
C2587       C  0.59331366  0.58035038  0.26501352    -0.24400
C2588       C  0.59127426  0.60443405  0.25211813     0.40200
C2589       C  0.61259559  0.62343955  0.23077231    -0.26900
O2590       O  0.65973217  0.58882343  0.22423782    -0.58700
H2591       H  0.61787368  0.55634541  0.26338467     0.15800
O2592       O  0.56942543  0.61052805  0.26108049    -0.60200
H2593       H  0.61153774  0.64257420  0.22207285     0.14300
H2594       H  0.71328514  0.73115403  0.20983517     0.46200
H2595       H  0.67628354  0.60041926  0.23883772     0.41500
H2596       H  0.55283192  0.59975249  0.24629777     0.45000
H2597       H  0.65401949  0.59743497  0.16001126     0.36500
C2598       C  0.73546264  0.70940670  0.64936731     0.80000
N2599       N  0.73309500  0.71080973  0.61851428    -0.78300
C2600       C  0.75547723  0.73355086  0.60223717     0.82500
N2601       N  0.78017305  0.75504982  0.61694527    -0.78200
C2602       C  0.78295947  0.75373476  0.64763366     0.82600
N2603       N  0.76048258  0.73091623  0.66352369    -0.79900
C2604       C  0.72535952  0.71919713  0.52312062     0.80000
N2605       N  0.74740422  0.74378136  0.50857427    -0.78300
C2606       C  0.77204427  0.76454133  0.52394529     0.82500
N2607       N  0.77432430  0.76064364  0.55423494    -0.78200
C2608       C  0.75252207  0.73636609  0.56917674     0.82600
N2609       N  0.72810525  0.71550802  0.55353880    -0.79900
C2610       C  0.75617116  0.99350548  0.64813165     0.80000
N2611       N  0.75425989  0.98948674  0.61731797    -0.78300
C2612       C  0.73092490  0.98830179  0.60160712     0.82500
N2613       N  0.70926974  0.99060918  0.61689139    -0.78200
C2614       C  0.71070467  0.99436686  0.64761550     0.82600
N2615       N  0.73430623  0.99586310  0.66300351    -0.79900
C2616       C  0.74653746  0.97677624  0.52147901     0.80000
N2617       N  0.74971781  0.98176871  0.55213730    -0.78300
C2618       C  0.72818098  0.98355473  0.56837463     0.82500
N2619       N  0.70357490  0.98060862  0.55380058    -0.78200
C2620       C  0.70016802  0.97568162  0.52326916     0.82600
N2621       N  0.72170891  0.97375513  0.50737835    -0.79900
C2622       C  0.97008748  0.72938922  0.64821290     0.80000
N2623       N  0.97541427  0.73210344  0.61758274    -0.78300
C2624       C  0.97766137  0.71046603  0.60212651     0.82500
N2625       N  0.97502739  0.68636665  0.61745843    -0.78200
C2626       C  0.96963664  0.68332518  0.64792943     0.82600
N2627       N  0.96723179  0.70493339  0.66315876    -0.79900
C2628       C  0.98699071  0.73645972  0.52166920     0.80000
N2629       N  0.98280325  0.73498128  0.55243806    -0.78300
C2630       C  0.98295996  0.71273805  0.56900369     0.82500
N2631       N  0.98719265  0.69181265  0.55467591    -0.78200
C2632       C  0.99158693  0.69311316  0.52403854     0.82600
N2633       N  0.99143435  0.71547132  0.50776678    -0.79900
O2634       O  0.50951928  0.90852027  0.86969816    -0.88400
C2635       C  0.57284700  0.56283151  0.78891422     1.11700
O2636       O  0.98602137  0.94497719  0.83575043    -1.36200
O2637       O  0.57796323  0.54403987  0.86938719    -0.89800
O2638       O  0.95964368  0.88471860  0.87011945    -0.90500
O2639       O  0.95519120  0.94638743  0.90000434    -0.79300
O2640       O  0.54406457  0.97512119  0.86429180    -1.01400
C2641       C  0.98789408  0.53323937  0.89040139     1.21700
O2642       O  0.95618750  0.97728303  0.83537923    -1.36300
Mn2643     Mn  0.98716061  0.97650240  0.80241696     1.82100
O2644       O  0.98746461  0.50985064  0.89906574    -0.78400
O2645       O  0.55422551  0.57011162  0.86633863    -0.87800
C2646       C  0.98446821  0.53047144  0.77852756     1.12800
C2647       C  0.57414602  0.56549192  0.87792458     1.07500
O2648       O  0.95611130  0.94556403  0.77146857    -0.79300
O2649       O  0.51755822  0.50851855  0.83478317    -1.33000
O2650       O  0.92708047  0.91808227  0.80673610    -0.98600
C2651       C  0.90169524  0.97845067  0.88042150     1.06200
Mn2652     Mn  0.52039252  0.55095749  0.83348405     1.48600
O2653       O  0.89623852  0.95342723  0.86936838    -0.87800
Mn2654     Mn  0.94535789  0.90298915  0.83584578     1.49600
O2655       O  0.50943366  0.90858228  0.80116328    -0.91600
C2656       C  0.54025351  0.97549664  0.89158970     1.19400
C2657       C  0.98395846  0.88849157  0.79092582     1.11500
Mn2658     Mn  0.98700335  0.97689747  0.86873062     1.81000
O2659       O  0.98538824  0.53533837  0.80582127    -0.96800
Mn2660     Mn  0.52519712  0.94152200  0.83563029     1.49300
C2661       C  0.98446836  0.88845684  0.88003588     1.08000
Mn2662     Mn  0.95259642  0.51740118  0.83543929     1.49900
C2663       C  0.90105167  0.97849604  0.79096939     1.10900
O2664       O  0.92744240  0.91864506  0.86433850    -1.02600
O2665       O  0.55202317  0.56727992  0.79811945    -0.92200
C2666       C  0.93191305  0.92302918  0.89168192     1.22200
O2667       O  0.98705503  0.53699746  0.86304113    -1.03000
O2668       O  0.57797191  0.54339816  0.80094187    -0.90400
O2669       O  0.91928152  0.50219953  0.80213076    -0.90000
O2670       O  0.95940527  0.88445352  0.80194784    -0.90000
Mn2671     Mn  0.55976000  0.51084790  0.83524154     1.47900
O2672       O  0.98513413  0.50757839  0.77029150    -0.78500
C2673       C  0.93232730  0.92259608  0.77945533     1.15300
O2674       O  0.51743156  0.97612872  0.90025218    -0.77200
O2675       O  0.51870494  0.97659858  0.77130906    -0.76800
Mn2676     Mn  0.91321131  0.93778659  0.83531906     1.51100
O2677       O  0.92054991  0.50277610  0.87053306    -0.89200
O2678       O  0.54532159  0.97562244  0.80741727    -0.96700
O2679       O  0.89587154  0.95312185  0.80089087    -0.91700
C2680       C  0.54175859  0.97640843  0.78003079     1.13000
C2681       C  0.98389748  0.61799728  0.00211234    -0.27800
C2682       C  0.99816240  0.62529722  0.97350796     0.01800
C2683       C  0.01233673  0.65534674  0.96343272     0.29900
C2684       C  0.01023799  0.67696772  0.98069885    -0.19600
C2685       C  0.99533276  0.66987481  0.50803962    -0.29000
C2686       C  0.98169107  0.64002427  0.51882109     0.43900
C2687       C  0.99562910  0.60124910  0.95291685     0.05100
O2688       O  0.52728567  0.66358054  0.93611477    -0.57500
H2689       H  0.52001284  0.69950311  0.97175584     0.18100
O2690       O  0.96588856  0.63179329  0.54570667    -0.64200
H2691       H  0.97270821  0.59502188  0.01020278     0.16500
C2692       C  0.00300112  0.57962903  0.96246572     0.28800
C2693       C  0.99995114  0.55721869  0.94214188    -0.25100
C2694       C  0.98976002  0.55611549  0.91213446    -0.24400
C2695       C  0.98236700  0.57782101  0.90274968     0.40200
C2696       C  0.98504442  0.59979117  0.92311421    -0.26900
O2697       O  0.01453973  0.58110214  0.99104663    -0.58700
H2698       H  0.00623430  0.54111432  0.94967758     0.15800
O2699       O  0.97283363  0.57808603  0.87354397    -0.60200
H2700       H  0.97870055  0.61583361  0.91549985     0.14300
H2701       H  0.94504024  0.62594085  0.54001755     0.46200
H2702       H  0.99513109  0.56301523  0.50317936     0.41500
H2703       H  0.95071975  0.56858391  0.87492570     0.45000
H2704       H  0.54735507  0.66632447  0.94061767     0.36500
C2705       C  0.98707353  0.80729225  0.99805558    -0.27800
C2706       C  0.98078104  0.80198426  0.96682820     0.01800
C2707       C  0.97532961  0.77469709  0.95420906     0.29900
C2708       C  0.97683948  0.75332798  0.97263770    -0.19600
C2709       C  0.98326822  0.75844243  0.00401383    -0.29000
C2710       C  0.98894462  0.78647528  0.51581235     0.43900
C2711       C  0.98130542  0.82548191  0.94707439     0.05100
O2712       O  0.46945626  0.76955885  0.92396276    -0.57500
H2713       H  0.47266917  0.73279614  0.96242878     0.18100
O2714       O  0.99382966  0.79202446  0.54649546    -0.64200
H2715       H  0.99144379  0.82836243  0.00791011     0.16500
C2716       C  0.95476486  0.82214847  0.93447697     0.28800
C2717       C  0.95607661  0.84331112  0.91353241    -0.25100
C2718       C  0.98378893  0.86802059  0.90454053    -0.24400
C2719       C  0.51034112  0.87245751  0.91901830     0.40200
C2720       C  0.50898300  0.85125193  0.94001881    -0.26900
O2721       O  0.92749717  0.79778300  0.94182208    -0.58700
H2722       H  0.93528504  0.83981525  0.90371104     0.15800
O2723       O  0.53788693  0.89620649  0.91123450    -0.60200
H2724       H  0.52959301  0.85410554  0.94970595     0.14300
H2725       H  0.97386936  0.78603811  0.55529123     0.46200
H2726       H  0.92077887  0.80383136  0.96030644     0.41500
H2727       H  0.54511703  0.90896177  0.92968679     0.45000
H2728       H  0.44730998  0.75715837  0.92248456     0.36500
C2729       C  0.96989971  0.56345045  0.70694569    -0.28600
C2730       C  0.97475737  0.59106441  0.71814744     0.01800
C2731       C  0.48296902  0.59840732  0.74938922     0.29900
C2732       C  0.48611591  0.57845846  0.76837205    -0.19600
C2733       C  0.98204938  0.55116926  0.75672956    -0.29000
C2734       C  0.97348119  0.54352926  0.72598414     0.43900
C2735       C  0.97080217  0.61208950  0.69815989     0.05100
O2736       O  0.48718401  0.62479144  0.76140569    -0.57500
H2737       H  0.49152067  0.58441062  0.79217632     0.18100
O2738       O  0.96810986  0.51659524  0.71440656    -0.64200
H2739       H  0.96281339  0.55709213  0.68353823     0.16500
C2740       C  0.48937463  0.62433765  0.67165585     0.28800
C2741       C  0.98520966  0.64496786  0.65384933    -0.25100
C2742       C  0.96835430  0.65764960  0.66455517    -0.24400
C2743       C  0.95146805  0.64624769  0.69158020     0.40200
C2744       C  0.95269764  0.62361370  0.70803317    -0.26900
O2745       O  0.50935139  0.61557488  0.66294697    -0.58700
H2746       H  0.50216844  0.65625307  0.63512708     0.15800
O2747       O  0.93395158  0.65725151  0.70236815    -0.60200
H2748       H  0.93993000  0.61544222  0.72900841     0.14300
H2749       H  0.94642045  0.50254893  0.71790557     0.46200
H2750       H  0.49973190  0.60180923  0.64548375     0.41500
H2751       H  0.91412955  0.64482400  0.69254587     0.45000
H2752       H  0.50861311  0.63964930  0.75766088     0.36500
C2753       C  0.95397534  0.77108272  0.71005890    -0.27800
C2754       C  0.97265121  0.80101941  0.70113457     0.01800
C2755       C  0.48771167  0.80650623  0.67467242     0.29900
C2756       C  0.48598346  0.78320518  0.65674176    -0.19600
C2757       C  0.96933854  0.75369056  0.66562072    -0.29000
C2758       C  0.95242748  0.74753926  0.69275378     0.43900
C2759       C  0.97611227  0.82541949  0.72161141     0.05100
O2760       O  0.50528020  0.83562662  0.66510548    -0.57500
H2761       H  0.49882331  0.78877707  0.63575506     0.18100
O2762       O  0.93393249  0.71857405  0.70234306    -0.64200
H2763       H  0.94120940  0.76596777  0.73107066     0.16500
C2764       C  0.95132955  0.82834757  0.72964142     0.28800
C2765       C  0.95444681  0.84943571  0.75156317    -0.25100
C2766       C  0.98221613  0.86808138  0.76592900    -0.24400
C2767       C  0.50689564  0.86505928  0.75785203     0.40200
C2768       C  0.50354149  0.84378365  0.73598598    -0.26900
O2769       O  0.92380581  0.81027153  0.71659656    -0.58700
H2770       H  0.93482711  0.85084509  0.75758743     0.15800
O2771       O  0.53459457  0.88279615  0.77063020    -0.60200
H2772       H  0.52282384  0.84183953  0.72977254     0.14300
H2773       H  0.94483398  0.71544650  0.71929639     0.46200
H2774       H  0.92307308  0.82169001  0.69869330     0.41500
H2775       H  0.53522876  0.87136465  0.78858325     0.45000
H2776       H  0.49135374  0.84069567  0.65463238     0.36500
C2777       C  0.86398352  0.00329025  0.93917644    -0.27800
C2778       C  0.83987028  0.97560857  0.94862546     0.01800
C2779       C  0.83772285  0.94900719  0.93755494     0.29900
C2780       C  0.85851946  0.95034051  0.91620889    -0.19600
C2781       C  0.88199212  0.97806161  0.90552104    -0.29000
C2782       C  0.88508405  0.00470437  0.91810392     0.43900
C2783       C  0.81605398  0.97473051  0.96837447     0.05100
O2784       O  0.81495402  0.92152618  0.94699204    -0.57500
H2785       H  0.85577734  0.92943464  0.90759650     0.18100
O2786       O  0.90623126  0.53076367  0.91113315    -0.64200
H2787       H  0.86388257  0.52166093  0.94915817     0.16500
C2788       C  0.82287001  0.99046372  0.99620273     0.28800
C2789       C  0.79977315  0.98904141  0.51426783    -0.25100
C2790       C  0.77000791  0.97457908  0.00360096    -0.24400
C2791       C  0.76323130  0.95854591  0.97586910     0.40200
C2792       C  0.78611597  0.95867435  0.95864371    -0.26900
O2793       O  0.85129353  0.00292440  0.50814054    -0.58700
H2794       H  0.80541284  0.00019082  0.53621185     0.15800
O2795       O  0.73165922  0.44055689  0.96523753    -0.60200
H2796       H  0.77789688  0.44539744  0.93650741     0.14300
H2797       H  0.92172462  0.53549760  0.92696552     0.46200
H2798       H  0.85275037  0.98707007  0.51953878     0.41500
H2799       H  0.73007456  0.45361812  0.94958179     0.45000
H2800       H  0.82346578  0.91564283  0.96416354     0.36500
C2801       C  0.61231756  0.98296052  0.92202227    -0.27800
C2802       C  0.60450766  0.97313352  0.95218909     0.01800
C2803       C  0.57579547  0.96543992  0.96305175     0.29900
C2804       C  0.55519933  0.96724961  0.94351696    -0.19600
C2805       C  0.56270556  0.97599864  0.91290779    -0.29000
C2806       C  0.59176227  0.98420893  0.90236055     0.43900
C2807       C  0.62690645  0.97133647  0.97177288     0.05100
O2808       O  0.56735685  0.95525065  0.99235648    -0.57500
H2809       H  0.53300029  0.96070520  0.95198287     0.18100
O2810       O  0.60102837  0.49629093  0.87363898    -0.64200
H2811       H  0.63450163  0.49161458  0.91484403     0.16500
C2812       C  0.64107851  0.95554305  0.96197581     0.28800
C2813       C  0.66459658  0.95682300  0.97902629    -0.25100
C2814       C  0.67352835  0.97272780  0.50708197    -0.24400
C2815       C  0.65793081  0.98694883  0.51765965     0.40200
C2816       C  0.63601630  0.98751979  0.99914181    -0.26900
O2817       O  0.63167063  0.93837626  0.93601145    -0.58700
H2818       H  0.67527522  0.94461065  0.97101050     0.15800
O2819       O  0.66383142  0.50061876  0.54446923    -0.60200
H2820       H  0.62105200  0.49496407  0.50853142     0.14300
H2821       H  0.61542154  0.51808337  0.87558719     0.46200
H2822       H  0.64773599  0.94940417  0.92070161     0.41500
H2823       H  0.67909868  0.52124065  0.53817031     0.45000
H2824       H  0.55922711  0.93328203  0.99128340     0.36500
C2825       C  0.81270232  0.00740095  0.71087901    -0.27800
C2826       C  0.82389939  0.98888656  0.70170088     0.01800
C2827       C  0.81407284  0.97322000  0.67394690     0.29900
C2828       C  0.79284417  0.97574261  0.65609139    -0.19600
C2829       C  0.78073054  0.99343509  0.66580842    -0.29000
C2830       C  0.79114969  0.00958071  0.69337035     0.43900
C2831       C  0.84495458  0.98539475  0.72199466     0.05100
O2832       O  0.82472780  0.95503211  0.66433761    -0.57500
H2833       H  0.78514112  0.96306007  0.63508450     0.18100
O2834       O  0.78087548  0.02805713  0.70312159    -0.64200
H2835       H  0.82019217  0.01968716  0.73214018     0.16500
C2836       C  0.87335102  0.00999262  0.72876518     0.28800
C2837       C  0.89172782  0.00706448  0.75038792    -0.25100
C2838       C  0.88211467  0.97979326  0.76598603    -0.24400
C2839       C  0.85397086  0.95481448  0.75827633     0.40200
C2840       C  0.83569399  0.95780882  0.73648349    -0.26900
O2841       O  0.87941341  0.53651785  0.71697696    -0.58700
H2842       H  0.91001463  0.52609629  0.75736205     0.15800
O2843       O  0.84329751  0.92784066  0.77302709    -0.60200
H2844       H  0.81374178  0.93876270  0.73162105     0.14300
H2845       H  0.76601191  0.01662154  0.71934385     0.46200
H2846       H  0.87585866  0.54834998  0.73250155     0.41500
H2847       H  0.84779025  0.91543975  0.75915678     0.45000
H2848       H  0.84388902  0.96858541  0.65377500     0.36500
C2849       C  0.63397738  0.98308821  0.66949291    -0.27800
C2850       C  0.63868610  0.99249528  0.70007105     0.01800
C2851       C  0.66782398  0.00468404  0.71234428     0.29900
C2852       C  0.69098420  0.00562563  0.69485631    -0.19600
C2853       C  0.68609812  0.99522596  0.66459282    -0.29000
C2854       C  0.65732124  0.98457308  0.65173086     0.43900
C2855       C  0.61291162  0.98769742  0.71961748     0.05100
O2856       O  0.67267267  0.52282026  0.73628444    -0.57500
H2857       H  0.71288799  0.01444489  0.70522244     0.18100
O2858       O  0.65137054  0.97476486  0.62209848    -0.64200
H2859       H  0.61181188  0.97346257  0.65955885     0.16500
C2860       C  0.59164130  0.99555399  0.70987395     0.28800
C2861       C  0.56774800  0.99059343  0.72911897    -0.25100
C2862       C  0.56502597  0.97852003  0.75853559    -0.24400
C2863       C  0.58613085  0.97035807  0.76802004     0.40200
C2864       C  0.60938493  0.97458073  0.74855751    -0.26900
O2865       O  0.59437429  0.00876674  0.68194101    -0.58700
H2866       H  0.55203120  0.99732984  0.72145461     0.15800
O2867       O  0.58468619  0.95874760  0.79660330    -0.60200
H2868       H  0.62485421  0.96755049  0.75628843     0.14300
H2869       H  0.64352145  0.95285584  0.62321907     0.46200
H2870       H  0.60315285  0.52642151  0.68158864     0.41500
H2871       H  0.57351293  0.93667940  0.79394245     0.45000
H2872       H  0.67553686  0.54273694  0.73069418     0.36500
C2873       C  0.86823417  0.85128585  0.92510937    -0.27800
C2874       C  0.86516478  0.86057805  0.95421392     0.01800
C2875       C  0.88546235  0.89009316  0.96364355     0.29900
C2876       C  0.90781957  0.91015918  0.94350442    -0.19600
C2877       C  0.91003135  0.90116319  0.91379168    -0.29000
C2878       C  0.89021569  0.87121359  0.90493163     0.43900
C2879       C  0.84038268  0.83894157  0.97403049     0.05100
O2880       O  0.88322570  0.89967494  0.99217971    -0.57500
H2881       H  0.92282412  0.93299883  0.95080904     0.18100
O2882       O  0.89250323  0.86091774  0.87677812    -0.64200
H2883       H  0.85329541  0.82839299  0.91788041     0.16500
C2884       C  0.81043908  0.82566392  0.96407616     0.28800
C2885       C  0.78743588  0.80249022  0.98105255    -0.25100
C2886       C  0.79643457  0.79079971  0.50762276    -0.24400
C2887       C  0.82374208  0.80617279  0.01860713     0.40200
C2888       C  0.84672309  0.82944725  0.00160586    -0.26900
O2889       O  0.80347840  0.83550851  0.93788264    -0.58700
H2890       H  0.76458858  0.79246254  0.97281892     0.15800
O2891       O  0.83384424  0.79726943  0.54516763    -0.60200
H2892       H  0.86971320  0.83930090  0.00935641     0.14300
H2893       H  0.87688682  0.86148468  0.86406170     0.46200
H2894       H  0.79965867  0.82012058  0.92224723     0.41500
H2895       H  0.83871153  0.78169133  0.53908170     0.45000
H2896       H  0.86695978  0.90615178  0.48775161     0.36500
C2897       C  0.66328660  0.68297735  0.96188578    -0.27800
C2898       C  0.65266831  0.65250513  0.96790636     0.01800
C2899       C  0.66343645  0.64463052  0.99385157     0.29900
C2900       C  0.68524916  0.66701957  0.01256637    -0.19600
C2901       C  0.69689069  0.69752494  0.00570786    -0.29000
C2902       C  0.68511762  0.70535707  0.98053424     0.43900
C2903       C  0.63166529  0.62928969  0.94612219     0.05100
O2904       O  0.65323414  0.61509399  0.00076356    -0.57500
H2905       H  0.69370132  0.65921304  0.53413571     0.18100
O2906       O  0.69506484  0.73485835  0.97367342    -0.64200
H2907       H  0.65526588  0.68949987  0.94209836     0.16500
C2908       C  0.60457471  0.62758051  0.93740620     0.28800
C2909       C  0.58596560  0.60643345  0.91570496    -0.25100
C2910       C  0.59382747  0.58658632  0.90210995    -0.24400
C2911       C  0.62100577  0.58835022  0.91103100     0.40200
C2912       C  0.63945438  0.60936719  0.93291107    -0.26900
O2913       O  0.59614272  0.64660525  0.94985021    -0.58700
H2914       H  0.56529584  0.60572981  0.90945702     0.15800
O2915       O  0.63026800  0.57021741  0.89808463    -0.60200
H2916       H  0.66044399  0.61066959  0.93896983     0.14300
H2917       H  0.68821753  0.73984509  0.48171630     0.46200
H2918       H  0.58214236  0.63505114  0.96665248     0.41500
H2919       H  0.64226314  0.58144200  0.87999132     0.45000
H2920       H  0.63443391  0.60837399  0.01242714     0.36500
C2921       C  0.83780017  0.79893474  0.71057044    -0.27800
C2922       C  0.85157889  0.82802305  0.69831139     0.01800
C2923       C  0.84497927  0.83209647  0.66809374     0.29900
C2924       C  0.82376427  0.80746242  0.65118574    -0.19600
C2925       C  0.80853891  0.77854520  0.66414114    -0.29000
C2926       C  0.81651692  0.77435334  0.69382948     0.43900
C2927       C  0.87178676  0.85384518  0.71785697     0.05100
O2928       O  0.85821606  0.86019179  0.65529844    -0.57500
H2929       H  0.81822597  0.81131247  0.62839319     0.18100
O2930       O  0.80329912  0.74643267  0.70702517    -0.64200
H2931       H  0.84325967  0.79531925  0.73349763     0.16500
C2932       C  0.86175556  0.85806671  0.74630329     0.28800
C2933       C  0.88152677  0.88111124  0.76561902    -0.25100
C2934       C  0.91147147  0.90050104  0.75702163    -0.24400
C2935       C  0.92119457  0.89709945  0.72796361     0.40200
C2936       C  0.90140125  0.87382920  0.70867591    -0.26900
O2937       O  0.83240564  0.84015735  0.75506850    -0.58700
H2938       H  0.87339285  0.88366850  0.78757380     0.15800
O2939       O  0.95014937  0.91576684  0.71850468    -0.60200
H2940       H  0.90943990  0.87086726  0.68685256     0.14300
H2941       H  0.81573306  0.73773884  0.70054660     0.46200
H2942       H  0.83271629  0.82669552  0.77109005     0.41500
H2943       H  0.96161049  0.90632319  0.72599993     0.45000
H2944       H  0.84524277  0.86844443  0.66119949     0.36500
C2945       C  0.68458453  0.66679116  0.71644910    -0.27800
C2946       C  0.66104942  0.64211937  0.70182718     0.01800
C2947       C  0.66206263  0.63905414  0.67007019     0.29900
C2948       C  0.68642320  0.66094532  0.65320532    -0.19600
C2949       C  0.71023413  0.68593055  0.66775423    -0.29000
C2950       C  0.70900362  0.68856176  0.69985450     0.43900
C2951       C  0.63583731  0.61978495  0.72046979     0.05100
O2952       O  0.63897141  0.61522179  0.65527132    -0.57500
H2953       H  0.68661490  0.65830501  0.62869517     0.18100
O2954       O  0.73133094  0.71236626  0.71544363    -0.64200
H2955       H  0.68398457  0.66918951  0.74098051     0.16500
C2956       C  0.63418753  0.59271634  0.72887631     0.28800
C2957       C  0.61273278  0.57376645  0.75016572    -0.25100
C2958       C  0.59276230  0.58155023  0.76362061    -0.24400
C2959       C  0.59365537  0.60816496  0.75390278     0.40200
C2960       C  0.61529608  0.62713131  0.73274228    -0.26900
O2961       O  0.65420154  0.58516790  0.71727658    -0.58700
H2962       H  0.61239688  0.55334917  0.75680181     0.15800
O2963       O  0.57473490  0.61683860  0.76614172    -0.60200
H2964       H  0.61662944  0.64811893  0.72652373     0.14300
H2965       H  0.72502984  0.72762481  0.71608582     0.46200
H2966       H  0.67153984  0.59423473  0.73143482     0.41500
H2967       H  0.55733061  0.60876490  0.75207123     0.45000
H2968       H  0.64485878  0.59966364  0.65445644     0.36500
loop_ 
_geom_bond_atom_site_label_1 
_geom_bond_atom_site_label_2 
_geom_bond_distance 
_geom_bond_site_symmetry_2 
_ccdc_geom_bond_type 
C1            N2   1.361       .  A
C1            N6   1.356       .  A
C1          C352   1.486       .  S
N2            C3   1.359       .  A
C3            N4   1.359       .  A
C3           C11   1.467       .  S
N4            C5   1.356       .  A
C5            N6   1.354       .  A
C5          C328   1.482       .  S
C7            N8   1.361       .  A
C7           N12   1.363       .  A
C7          C675   1.485       .  S
N8            C9   1.359       .  A
C9           N10   1.353       .  A
C9          C289   1.481       .  S
N10          C11   1.355       .  A
C11          N12   1.361       .  A
C13          N14   1.362       .  A
C13          N18   1.358       .  A
C13         C232   1.486       .  S
N14          C15   1.362       .  A
C15          N16   1.359       .  A
C15          C21   1.470       .  S
N16          C17   1.356       .  A
C17          N18   1.357       .  A
C17         C256   1.485       .  S
C19          N20   1.361       .  A
C19          N24   1.358       .  A
C19         C564   1.484       .  S
N20          C21   1.361       .  A
C21          N22   1.359       .  A
N22          C23   1.356       .  A
C23          N24   1.356       .  A
C23         C217   1.481       .  S
C25          N26   1.362       .  A
C25          N30   1.360       .  A
C25         C160   1.486       .  S
N26          C27   1.362       .  A
C27          N28   1.357       .  A
C27          C33   1.472       .  S
N28          C29   1.357       .  A
C29          N30   1.360       .  A
C29         C145   1.486       .  S
C31          N32   1.359       .  A
C31          N36   1.359       .  A
C31         C483   1.483       .  S
N32          C33   1.358       .  A
C33          N34   1.361       .  A
N34          C35   1.360       .  A
C35          N36   1.359       .  A
C35          C88   1.489       .  S
O37         Mn63   2.090       .  S
O37        C1548   1.271   1_455  A
C38         C361   1.484       .  S
C38          O71   1.270       .  A
C38          O68   1.271       .  A
O39         Mn46   2.165       .  S
O39         Mn57   2.128       .  S
O39         Mn61   2.170       .  S
O39       Mn1547   2.118       .  S
O40         Mn74   2.110       .  S
O40          C50   1.275       .  A
O41         Mn57   2.098       .  S
O41          C64   1.273       .  A
O42         Mn61   2.101       .  S
O42          C69   1.253       .  A
O43         Mn63   1.959       .  S
O43        Mn816   1.950       .  S
O43          C59   1.214       .  S
C44          C97   1.484       .  S
C44          O47   1.255       .  A
C44          O70   1.217       .  S
O45         Mn46   2.168       .  S
O45         Mn79   2.126       .  S
O45         Mn61   2.166       .  S
O45        Mn807   2.122       .  S
Mn46         O51   2.091       .  S
Mn46        O817   2.105       .  S
Mn46       O1562   2.111       .  S
Mn46       O2278   2.162       .  S
O47        Mn803   2.115   1_545  S
O48         Mn55   2.089       .  S
O48          C50   1.272       .  A
C49         C136   1.483       .  S
C49          O75   1.252       .  A
C49          O62   1.217       .  S
C50         C313   1.494       .  S
O51          C76   1.251       .  A
O52         Mn55   2.120       .  S
O52         Mn74   2.119       .  S
O52       Mn2272   2.163   1_445  S
O52       Mn2287   2.165   1_445  S
O53         Mn57   1.962       .  S
O53         Mn79   1.961       .  S
O53          C76   1.220       .  S
C54         C184   1.490       .  S
C54          O56   1.272       .  A
C54         O822   1.272       .  A
Mn55         O68   2.090       .  S
Mn55       O1554   1.956   1_455  S
Mn55       O1546   1.957   1_455  S
O56         Mn79   2.089       .  S
Mn57         O73   2.094       .  S
Mn57         O67   1.961       .  S
O58         Mn63   2.108       .  S
O58        C1544   1.275   1_455  A
C59         C208   1.479       .  S
C59          O77   1.253       .  A
C60         C169   1.493       .  S
C60          O73   1.272       .  A
C60        O1542   1.274       .  A
Mn61        O789   2.112       .  S
Mn61       O1561   2.113       .  S
Mn61       O2278   2.165       .  S
O62         Mn65   1.955       .  S
O62       Mn1539   1.956       .  S
Mn63       O1523   2.119   1_455  S
Mn63         O81   1.958       .  S
C64         C121   1.489       .  S
C64        O1521   1.270       .  A
Mn65         O72   2.093       .  S
Mn65         O80   2.097       .  S
Mn65        O787   2.123   1_545  S
Mn65         O70   1.960       .  S
C66         C241   1.492       .  S
C66          O82   1.272       .  A
C66         O814   1.272       .  A
O67         Mn79   1.963       .  S
O67          C69   1.220       .  S
C69         C280   1.481       .  S
O70       Mn1539   1.958       .  S
O71         Mn74   2.079       .  S
O72         C808   1.272   1_545  A
Mn74        O785   1.957   1_545  S
Mn74        O823   1.961   1_545  S
O75        Mn788   2.111   1_545  S
C76         C337   1.477       .  S
O77       Mn1545   2.114   1_455  S
O78       Mn1530   2.113   1_455  S
O78          C83   1.253       .  A
Mn79         O82   2.097       .  S
O80         C796   1.272   1_545  A
O81        Mn816   1.960       .  S
O81          C83   1.215       .  S
C83         C265   1.483       .  S
C84          C85   1.405       .  A
C84         C460   1.403       .  A
C84          H94   1.083       .  S
C85          C90   1.489       .  S
C85          C86   1.410       .  A
C86          C87   1.398       .  A
C86        O1575   1.372       .  S
C87         C459   1.405       .  A
C87        H1576   1.084       .  S
C88          C89   1.413       .  A
C88         C458   1.406   1_554  A
C89         C455   1.404       .  A
C89          O93   1.371       .  S
C90          C95   1.410       .  A
C90          C99   1.402       .  A
O91        C1570   1.372       .  S
O91         H107   0.991       .  S
H92        C1571   1.084       .  S
O93         H104   0.992       .  S
C95          C96   1.406       .  A
C95         O100   1.372       .  S
C96          C97   1.405       .  A
C96         H101   1.083       .  S
C97          C98   1.414       .  A
C98          C99   1.396       .  A
C98         O102   1.373       .  S
C99         H103   1.084       .  S
O100        H476   0.992       .  S
O102        H106   0.991       .  S
H105        O471   0.992   1_554  S
C108        C109   1.401       .  A
C108        C484   1.403       .  A
C108        H118   1.084       .  S
C109        C114   1.476       .  S
C109        C110   1.404       .  A
C110        C111   1.395       .  A
C110       O1599   1.372       .  S
C111        C112   1.409       .  A
C111       H1600   1.083       .  S
C112        C402   1.489       .  S
C112        C484   1.416       .  A
C113        C479   1.402   1_554  A
C113        C483   1.412       .  A
C113        O117   1.372       .  S
C114        C119   1.405       .  A
C114       C1607   1.399       .  A
O115       C1594   1.372       .  S
O115        H131   0.992       .  S
H116       C1595   1.083       .  S
O117        H128   0.992       .  S
C119        C120   1.401       .  A
C119        O124   1.371       .  S
C120        C121   1.410       .  A
C120        H125   1.083       .  S
C121       C1606   1.417       .  A
C122        C123   1.401       .  A
C122       C1605   1.417   1_455  A
C122        O126   1.372       .  S
C123       C1598   1.399   1_455  A
C123        H127   1.084       .  S
O124        H129   0.991       .  S
O126        H130   0.991       .  S
C132        C133   1.406       .  A
C132        C137   1.405       .  A
C132        H142   1.083       .  S
C133        C138   1.485       .  S
C133       C1618   1.407       .  A
C134        C135   1.394       .  A
C134       C1617   1.407       .  A
C134        O139   1.372       .  S
C135       C1620   1.406       .  A
C135        H140   1.084       .  S
C136        C137   1.411       .  A
C136       C1619   1.406       .  A
C137        O141   1.371       .  S
C138        C147   1.405       .  A
C138       C1627   1.407       .  A
O139        H155   0.992   1_655  S
O141        H152   0.992       .  S
C143       C1622   1.407       .  A
C143       C1628   1.401       .  A
C143        O148   1.372   1_655  S
C144        C145   1.407       .  A
C144       C1627   1.401       .  A
C144       H1633   1.083       .  S
C145        C146   1.411       .  A
C146        C147   1.400       .  A
C146        O150   1.371       .  S
C147        H151   1.084       .  S
O148        H153   0.992   1_455  S
H149       C1628   1.083       .  S
O150        H154   0.992       .  S
C156        C157   1.403       .  A
C156        C161   1.402       .  A
C156        H166   1.084       .  S
C157        C162   1.488       .  S
C157       C1642   1.410       .  A
C158        C159   1.405       .  A
C158       C1641   1.410       .  A
C158        O163   1.371   1_655  S
C159       C1644   1.406       .  A
C159        H164   1.083   1_655  S
C160        C161   1.411       .  A
C160       C1643   1.406       .  A
C161        O165   1.372       .  S
C162        C167   1.408       .  A
C162       C1655   1.403       .  A
O163        H179   0.992   1_455  S
O165        H176   0.992       .  S
C167        C168   1.403       .  A
C167        O172   1.372       .  S
C168        C169   1.410       .  A
C168        H173   1.083       .  S
C169       C1654   1.414       .  A
C170        C171   1.403       .  A
C170       C1653   1.415   1_455  A
C170        O174   1.371       .  S
C171       C1646   1.404   1_455  A
C171        H175   1.084       .  S
O172        H177   0.992       .  S
O174        H178   0.992       .  S
C180        C181   1.402       .  A
C180        C185   1.400       .  A
C180        H932   1.084       .  S
C181        C186   1.485       .  S
C181        C182   1.408       .  A
C182        C183   1.398       .  A
C182        O187   1.372       .  S
C183        C184   1.408       .  A
C183        H188   1.083       .  S
C184        C185   1.415       .  A
C185        O931   1.370       .  S
C186        C191   1.409       .  A
C186        C195   1.403       .  A
O187        H203   0.991       .  S
O189        C927   1.370       .  S
O189        H200   0.992       .  S
H190        C922   1.084       .  S
C191        C563   1.402       .  A
C191        O567   1.371       .  S
C192        C562   1.402   1_554  A
C192        C564   1.406       .  A
C192        H197   1.083       .  S
C193        C390   1.482       .  S
C193        C194   1.412       .  A
C193        C563   1.405       .  A
C194        C195   1.398       .  A
C194        O940   1.372       .  S
C195        H941   1.084       .  S
O196        C562   1.371   1_554  S
O196        H201   0.992       .  S
O198        C936   1.372       .  S
O198        H202   0.992       .  S
H199        C937   1.084       .  S
C204        C205   1.399       .  A
C204        C209   1.393       .  A
C204        H956   1.084       .  S
C205        C210   1.480       .  S
C205        C206   1.409       .  A
C206        C207   1.404       .  A
C206        O211   1.371       .  S
C207        C208   1.405       .  A
C207        H212   1.083       .  S
C208        C209   1.414       .  A
C209        O955   1.373       .  S
C210        C215   1.408       .  A
C210        C219   1.402       .  A
O211        H227   0.992       .  S
O213        C951   1.373       .  S
O213        H224   0.992   1_565  S
H214        C946   1.084       .  S
C215        C216   1.398       .  A
C215        O220   1.373       .  S
C216        C588   1.404       .  A
C216        H221   1.084       .  S
C217        C218   1.412       .  A
C217        C587   1.404   1_554  A
C218        C590   1.402   1_554  A
C218        O964   1.371       .  S
C219        C589   1.401       .  A
C219       H1336   1.084       .  S
O220        H225   0.992       .  S
O222        C960   1.371   1_545  S
O222        H226   0.992       .  S
H223       C1332   1.084   1_554  S
C228        C229   1.401       .  A
C228        C233   1.399       .  A
C228        H238   1.084       .  S
C229        C234   1.482       .  S
C229        C230   1.408       .  A
C230        C231   1.404       .  A
C230        O235   1.371       .  S
C231        C232   1.407       .  A
C231        H236   1.083       .  S
C232        C233   1.413       .  A
C233        O237   1.372       .  S
C234        C239   1.406       .  A
C234        C243   1.402       .  A
O235        H251   0.992       .  S
O237        H248   0.992       .  S
C239        C240   1.400       .  A
C239        O986   1.372       .  S
C240        C241   1.409       .  A
C240        H987   1.084       .  S
C241        C242   1.416       .  A
C242        C243   1.403       .  A
C242        O246   1.371       .  S
C243        H247   1.084       .  S
O244        C981   1.372       .  S
O244        H249   0.991       .  S
H245        C982   1.083       .  S
O246        H250   0.991       .  S
C252        C253   1.404       .  A
C252        C257   1.402       .  A
C252        H262   1.083       .  S
C253        C258   1.488       .  S
C253        C254   1.411       .  A
C254        C255   1.397       .  A
C254       O1001   1.372       .  S
C255        C256   1.405       .  A
C255        H260   1.083       .  S
C256        C257   1.413       .  A
C257        O261   1.372       .  S
C258        C263   1.411       .  A
C258        C267   1.402       .  A
O259        C996   1.372       .  S
O259        H275   0.992       .  S
O261        H272   0.992       .  S
C263        C264   1.404       .  A
C263        O268   1.371       .  S
C264        C265   1.405       .  A
C264        H269   1.083       .  S
C265        C266   1.414       .  A
C266        C267   1.395       .  A
C266        O270   1.372       .  S
C267        H271   1.084       .  S
O268       H1015   0.992       .  S
O270        H274   0.991       .  S
H273       O1010   0.992       .  S
C276        C277   1.400       .  A
C276        C281   1.396       .  A
C276        H286   1.084       .  S
C277        C282   1.478       .  S
C277        C278   1.407       .  A
C278        C279   1.404       .  A
C278        O283   1.371       .  S
C279        C280   1.407       .  A
C279        H284   1.083       .  S
C280        C281   1.412       .  A
C281        O285   1.372       .  S
C282        C287   1.406       .  A
C282        C291   1.401       .  A
O283        H670   0.991       .  S
O285        H296   0.992       .  S
C287        C288   1.399       .  A
C287        O292   1.372       .  S
C288        C660   1.405       .  A
C288        H293   1.084       .  S
C289        C659   1.404   1_554  A
C289        C661   1.415       .  A
C290        C291   1.401       .  A
C290        C660   1.415       .  A
C290        O665   1.372       .  S
C291        H295   1.084       .  S
O292        H297   0.992       .  S
O294        C661   1.372       .  S
O294        H298   0.992       .  S
H299        O654   0.992       .  S
C300        C301   1.404       .  A
C300        C305   1.402       .  A
C300        H310   1.084       .  S
C301        C306   1.488       .  S
C301        C302   1.409       .  A
C302        C303   1.403       .  A
C302        O307   1.371       .  S
C303        C304   1.406       .  A
C303        H679   1.083       .  S
C304        C378   1.488       .  S
C304        C305   1.413       .  A
C305        O309   1.372       .  S
C306        C311   1.408       .  A
C306        C315   1.404       .  A
O307        H323   0.992       .  S
H308        C674   1.083       .  S
O309        H691   0.992       .  S
C311        C312   1.402       .  A
C311        O316   1.372       .  S
C312        C313   1.411       .  A
C312        H317   1.084       .  S
C313        C314   1.414       .  A
C314        C315   1.403       .  A
C314        O318   1.370       .  S
C315        H319   1.084       .  S
O316        H321   0.992       .  S
O318        H322   0.992       .  S
H320        O680   0.992       .  S
C324        C325   1.402       .  A
C324        C329   1.396       .  A
C324        H334   1.084       .  S
C325        C330   1.480       .  S
C325        C326   1.407       .  A
C326        C327   1.401       .  A
C326        O331   1.372       .  S
C327        C328   1.407       .  A
C327        H332   1.083       .  S
C328        C329   1.412       .  A
C329        O333   1.371       .  S
C330        C335   1.407       .  A
C330        C339   1.404       .  A
O331        H347   0.992       .  S
O333        H344   0.992       .  S
C335        C336   1.395       .  A
C335        O340   1.373       .  S
C336        C337   1.404       .  A
C336        H341   1.084       .  S
C337        C338   1.411       .  A
C338        C339   1.402       .  A
C338        O342   1.372       .  S
C339        H343   1.083       .  S
O340        H345   0.992       .  S
O342        H346   0.992       .  S
C348        C349   1.396       .  A
C348        C353   1.394       .  A
C348        H358   1.084       .  S
C349        C354   1.467       .  S
C349        C350   1.402       .  A
C350        C351   1.400       .  A
C350        O355   1.371       .  S
C351        C352   1.409       .  A
C351        H356   1.083       .  S
C352        C353   1.418       .  A
C353        O357   1.372       .  S
C354        C359   1.401       .  A
C354        C363   1.399       .  A
O355        H371   0.992       .  S
O357        H368   0.992       .  S
C359        C360   1.395       .  A
C359        O364   1.372       .  S
C360        C361   1.409       .  A
C360        H365   1.083       .  S
C361        C362   1.415       .  A
C362        C363   1.399       .  A
C362        O366   1.371       .  S
C363        H367   1.084       .  S
O364        H369   0.992       .  S
O366        H370   0.992       .  S
C372        N373   1.359       .  A
C372        N377   1.358       .  A
C372        C723   1.475       .  S
N373        C374   1.357       .  A
C374        N375   1.360       .  A
C374        C382   1.470       .  S
N375        C376   1.359       .  A
C376        N377   1.358       .  A
C376        C699   1.490       .  S
C378        N379   1.360       .  A
C378        N383   1.362       .  A
N379        C380   1.359       .  A
C380        N381   1.355       .  A
C380        C660   1.483       .  S
N381        C382   1.356       .  A
C382        N383   1.362       .  A
C384        N385   1.361       .  A
C384        N389   1.359       .  A
C384        C603   1.481       .  S
N385        C386   1.361       .  A
C386        N387   1.359       .  A
C386        C392   1.470       .  S
N387        C388   1.357       .  A
C388        N389   1.358       .  A
C388        C627   1.485       .  S
C390        N391   1.361       .  A
C390        N395   1.357       .  A
N391        C392   1.361       .  A
C392        N393   1.359       .  A
N393        C394   1.356       .  A
C394        N395   1.356       .  A
C394        C588   1.480       .  S
C396        N397   1.364       .  A
C396        N401   1.359       .  A
C396        C531   1.495       .  S
N397        C398   1.363       .  A
C398        N399   1.357       .  A
C398        C404   1.470       .  S
N399        C400   1.354       .  A
C400        N401   1.355       .  A
C400        C516   1.477       .  S
C402        N403   1.360       .  A
C402        N407   1.359       .  A
N403        C404   1.359       .  A
C404        N405   1.361       .  A
N405        C406   1.357       .  A
C406        N407   1.356       .  A
C406        C459   1.485       .  S
O408       Mn434   2.088       .  S
O408       C1919   1.271   1_455  A
C409        C732   1.482       .  S
C409        O442   1.270       .  A
C409        O439   1.272       .  A
O410       Mn417   2.163       .  S
O410       Mn428   2.124       .  S
O410       Mn432   2.168       .  S
O410      Mn1918   2.119       .  S
O411       Mn445   2.108       .  S
O411        C421   1.274       .  A
O412       Mn428   2.095       .  S
O412        C435   1.272       .  A
O413       Mn432   2.104       .  S
O413        C440   1.253       .  A
O414      Mn1187   1.954       .  S
O414       Mn434   1.960       .  S
O414        C430   1.214       .  S
C415        C468   1.487       .  S
C415        O418   1.256       .  A
C415        O441   1.217       .  S
O416      Mn1178   2.121       .  S
O416       Mn417   2.172       .  S
O416       Mn450   2.124       .  S
O416       Mn432   2.164       .  S
Mn417      O1188   2.105       .  S
Mn417       O422   2.110       .  S
Mn417      O1933   2.118       .  S
Mn417      O2649   2.169       .  S
O418      Mn1174   2.118   1_545  S
O419       Mn426   2.089       .  S
O419        C421   1.272       .  A
C420        C507   1.480       .  S
C420        O446   1.252       .  A
C420        O433   1.216       .  S
C421        C684   1.493       .  S
O422        C447   1.254       .  A
O423      Mn2643   2.164   1_445  S
O423       Mn426   2.121       .  S
O423       Mn445   2.119       .  S
O423      Mn2658   2.167   1_445  S
O424       Mn428   1.960       .  S
O424       Mn450   1.955       .  S
O424        C447   1.218       .  S
C425        C555   1.490       .  S
C425       O1193   1.273       .  A
C425        O427   1.271       .  A
Mn426       O439   2.091       .  S
Mn426      O1925   1.956   1_455  S
Mn426      O1917   1.957   1_455  S
O427       Mn450   2.085       .  S
Mn428       O444   2.088       .  S
Mn428       O438   1.957       .  S
O429       Mn434   2.101       .  S
O429       C1915   1.274   1_455  A
C430        C579   1.481       .  S
C430        O448   1.253       .  A
C431        C540   1.492       .  S
C431       O1913   1.274       .  A
C431        O444   1.272       .  A
Mn432      O1160   2.109       .  S
Mn432      O1932   2.109       .  S
Mn432      O2649   2.167       .  S
O433      Mn1910   1.954       .  S
O433       Mn436   1.954       .  S
Mn434      O1894   2.116   1_455  S
Mn434       O452   1.955       .  S
C435        C492   1.491       .  S
C435       O1892   1.271       .  A
Mn436       O443   2.092       .  S
Mn436       O451   2.096       .  S
Mn436      O1158   2.121   1_545  S
Mn436       O441   1.960       .  S
C437        C612   1.492       .  S
C437       O1185   1.271       .  A
C437        O453   1.273       .  A
O438       Mn450   1.965       .  S
O438        C440   1.219       .  S
C440        C651   1.480       .  S
O441      Mn1910   1.958       .  S
O442       Mn445   2.080       .  S
O443       C1179   1.272   1_545  A
Mn445      O1156   1.950   1_545  S
Mn445      O1194   1.959   1_545  S
O446      Mn1159   2.107   1_545  S
C447        C708   1.482       .  S
O448      Mn1916   2.114   1_455  S
O449      Mn1901   2.118   1_455  S
O449        C454   1.255       .  A
Mn450       O453   2.104       .  S
O451       C1167   1.272   1_545  A
O452      Mn1187   1.957       .  S
O452        C454   1.215       .  S
C454        C636   1.484       .  S
C455        C456   1.405   1_554  A
C455        H465   1.083       .  S
C456        C461   1.492       .  S
C456        C457   1.411       .  A
C457        C458   1.400       .  A
C457       O1946   1.372       .  S
C458       H1947   1.084       .  S
C459        C460   1.412       .  A
C460        O464   1.371       .  S
C461        C466   1.411       .  A
C461        C470   1.403       .  A
O462       C1941   1.372       .  S
O462        H478   0.992       .  S
H463       C1942   1.084       .  S
O464        H475   0.992       .  S
C466        C467   1.407       .  A
C466        O471   1.372       .  S
C467        C468   1.406       .  A
C467        H472   1.083       .  S
C468        C469   1.414       .  A
C469        C470   1.398       .  A
C469        O473   1.373       .  S
C470        H474   1.083       .  S
O473        H477   0.991       .  S
C479        C480   1.402       .  A
C479        H489   1.084   1_556  S
C480        C485   1.478       .  S
C480        C481   1.405       .  A
C481        C482   1.399       .  A
C481       O1970   1.372       .  S
C482        C483   1.406   1_556  A
C482       H1971   1.084       .  S
C484        O488   1.371       .  S
C485        C490   1.405       .  A
C485       C1978   1.399       .  A
O486       C1965   1.372       .  S
O486        H502   0.992       .  S
H487       C1966   1.083       .  S
O488        H499   0.992       .  S
C490        C491   1.400       .  A
C490        O495   1.372       .  S
C491        C492   1.410       .  A
C491        H496   1.083       .  S
C492       C1977   1.416       .  A
C493       C1976   1.415   1_455  A
C493        C494   1.397       .  A
C493        O497   1.372       .  S
C494       C1969   1.401   1_455  A
C494        H498   1.084       .  S
O495        H500   0.992       .  S
O497        H501   0.992       .  S
C503        C504   1.406       .  A
C503        C508   1.404       .  A
C503        H513   1.083       .  S
C504        C509   1.482       .  S
C504       C1989   1.407       .  A
C505       C1988   1.408       .  A
C505        C506   1.392       .  A
C505        O510   1.372       .  S
C506       C1991   1.404       .  A
C506        H511   1.084   1_655  S
C507       C1990   1.406       .  A
C507        C508   1.410       .  A
C508        O512   1.371       .  S
C509       C1998   1.408       .  A
C509        C518   1.404       .  A
O510        H526   0.992   1_655  S
O512        H523   0.992       .  S
C514       C1993   1.408       .  A
C514       C1999   1.401       .  A
C514        O519   1.372   1_655  S
C515       C1998   1.401       .  A
C515        C516   1.405       .  A
C515       H2004   1.084       .  S
C516        C517   1.409       .  A
C517        C518   1.397       .  A
C517        O521   1.372       .  S
C518        H522   1.084       .  S
O519        H524   0.992   1_455  S
H520       C1999   1.084   1_455  S
O521        H525   0.992       .  S
C527        C528   1.397       .  A
C527        C532   1.397       .  A
C527        H537   1.084       .  S
C528        C533   1.478       .  S
C528       C2013   1.405       .  A
C529       C2012   1.406       .  A
C529        C530   1.406       .  A
C529        O534   1.371       .  S
C530       C2015   1.410       .  A
C530        H535   1.083       .  S
C531       C2014   1.411       .  A
C531        C532   1.419       .  A
C532        O536   1.371       .  S
C533        C538   1.403       .  A
C533       C2026   1.400       .  A
O534        H550   0.991       .  S
O536        H547   0.992       .  S
C538        C539   1.399       .  A
C538        O543   1.372       .  S
C539        C540   1.410       .  A
C539        H544   1.083       .  S
C540       C2025   1.415       .  A
C541       C2024   1.416   1_455  A
C541        C542   1.401       .  A
C541        O545   1.371       .  S
C542       C2017   1.400   1_455  A
C542        H546   1.084       .  S
O543        H548   0.992       .  S
O545        H549   0.992       .  S
C551        C552   1.403       .  A
C551        C556   1.401       .  A
C551       H1303   1.084       .  S
C552        C557   1.483       .  S
C552        C553   1.407       .  A
C553        C554   1.397       .  A
C553        O558   1.372       .  S
C554        C555   1.409       .  A
C554        H559   1.083       .  S
C555        C556   1.414       .  A
C556       O1302   1.370       .  S
C557        C562   1.408       .  A
C557        C566   1.402       .  A
O558        H574   0.991       .  S
O560       C1298   1.370       .  S
O560        H571   0.992       .  S
H561       C1293   1.084       .  S
C563        H568   1.083       .  S
C564        C565   1.413   1_554  A
C565        C566   1.398       .  A
C565       O1311   1.372       .  S
C566       H1312   1.084       .  S
O567        H572   0.992       .  S
O569       C1307   1.372       .  S
O569        H573   0.992       .  S
H570       C1308   1.084       .  S
C575        C576   1.399       .  A
C575        C580   1.394       .  A
C575       H1327   1.084       .  S
C576        C581   1.480       .  S
C576        C577   1.409       .  A
C577        C578   1.404       .  A
C577        O582   1.371       .  S
C578        C579   1.405       .  A
C578        H583   1.083       .  S
C579        C580   1.414       .  A
C580       O1326   1.373       .  S
C581        C586   1.408       .  A
C581        C590   1.403       .  A
O582        H598   0.992       .  S
O584       C1322   1.373       .  S
O584        H595   0.990   1_565  S
H585       C1317   1.084       .  S
C586        C587   1.398       .  A
C586        O591   1.373       .  S
C587        H592   1.084       .  S
C588        C589   1.412       .  A
C589       O1335   1.371       .  S
C590        H965   1.084   1_556  S
O591        H596   0.992       .  S
O593       C1331   1.371   1_545  S
O593        H597   0.992       .  S
H594        C961   1.084       .  S
C599        C600   1.404       .  A
C599        C604   1.400       .  A
C599        H609   1.083       .  S
C600        C605   1.488       .  S
C600        C601   1.410       .  A
C601        C602   1.402       .  A
C601        O606   1.371       .  S
C602        C603   1.405       .  A
C602        H607   1.083       .  S
C603        C604   1.410       .  A
C604        O608   1.372       .  S
C605        C610   1.408       .  A
C605        C614   1.405       .  A
O606        H622   0.991       .  S
O608        H619   0.991       .  S
C610        C611   1.400       .  A
C610       O1357   1.373       .  S
C611        C612   1.409       .  A
C611       H1358   1.084       .  S
C612        C613   1.414       .  A
C613        C614   1.403       .  A
C613        O617   1.371       .  S
C614        H618   1.083       .  S
O615       C1352   1.372       .  S
O615        H620   0.991       .  S
H616       C1353   1.084       .  S
O617        H621   0.992       .  S
C623        C624   1.403       .  A
C623        C628   1.402       .  A
C623        H633   1.083       .  S
C624        C629   1.487       .  S
C624        C625   1.410       .  A
C625        C626   1.399       .  A
C625       O1372   1.372       .  S
C626        C627   1.405       .  A
C626        H631   1.083       .  S
C627        C628   1.414       .  A
C628        O632   1.372       .  S
C629        C634   1.411       .  A
C629        C638   1.401       .  A
O630       C1367   1.372       .  S
O630        H646   0.991       .  S
O632        H643   0.992       .  S
C634        C635   1.405       .  A
C634        O639   1.371       .  S
C635        C636   1.405       .  A
C635        H640   1.083       .  S
C636        C637   1.415       .  A
C637        C638   1.395       .  A
C637        O641   1.373       .  S
C638        H642   1.084       .  S
O639       H1386   0.992       .  S
O641        H645   0.991       .  S
H644       O1381   0.991       .  S
C647        C648   1.399       .  A
C647        C652   1.394       .  A
C647        H657   1.084       .  S
C648        C653   1.477       .  S
C648        C649   1.407       .  A
C649        C650   1.404       .  A
C649        O654   1.371       .  S
C650        C651   1.406       .  A
C650        H655   1.083       .  S
C651        C652   1.412       .  A
C652        O656   1.372       .  S
C653        C658   1.407       .  A
C653        C662   1.400   1_556  A
O656        H667   0.992       .  S
C658        C659   1.398       .  A
C658        O663   1.372       .  S
C659        H664   1.084       .  S
C661        C662   1.401       .  A
C662        H666   1.084       .  S
O663        H668   0.991       .  S
O665        H669   0.992       .  S
C671        C672   1.404       .  A
C671        C676   1.401       .  A
C671        H681   1.084       .  S
C672        C677   1.488       .  S
C672        C673   1.410       .  A
C673        C674   1.403   1_556  A
C673        O678   1.371   1_556  S
C674        C675   1.406       .  A
C675        C676   1.412   1_554  A
C676        O680   1.372       .  S
C677        C682   1.408       .  A
C677        C686   1.404       .  A
O678        H694   0.992       .  S
C682        C683   1.401       .  A
C682        O687   1.372       .  S
C683        C684   1.410       .  A
C683        H688   1.084       .  S
C684        C685   1.414       .  A
C685        C686   1.403       .  A
C685        O689   1.370       .  S
C686        H690   1.084       .  S
O687        H692   0.992       .  S
O689        H693   0.992       .  S
C695        C696   1.403       .  A
C695        C700   1.399       .  A
C695        H705   1.083       .  S
C696        C701   1.486       .  S
C696        C697   1.408       .  A
C697        C698   1.402       .  A
C697        O702   1.371       .  S
C698        C699   1.408       .  A
C698        H703   1.083       .  S
C699        C700   1.414       .  A
C700        O704   1.371       .  S
C701        C706   1.408       .  A
C701        C710   1.406       .  A
O702        H718   0.992       .  S
O704        H715   0.991       .  S
C706        C707   1.398       .  A
C706        O711   1.373       .  S
C707        C708   1.406       .  A
C707        H712   1.084       .  S
C708        C709   1.409       .  A
C709        C710   1.404       .  A
C709        O713   1.371       .  S
C710        H714   1.083       .  S
O711        H716   0.992       .  S
O713        H717   0.992       .  S
C719        C720   1.402       .  A
C719        C724   1.399       .  A
C719        H729   1.084       .  S
C720        C725   1.477       .  S
C720        C721   1.407       .  A
C721        C722   1.398       .  A
C721        O726   1.371       .  S
C722        C723   1.405       .  A
C722        H727   1.084       .  S
C723        C724   1.409       .  A
C724        O728   1.372       .  S
C725        C730   1.405       .  A
C725        C734   1.402       .  A
O726        H742   0.992       .  S
O728        H739   0.992       .  S
C730        C731   1.398       .  A
C730        O735   1.372       .  S
C731        C732   1.408       .  A
C731        H736   1.083       .  S
C732        C733   1.412       .  A
C733        C734   1.398       .  A
C733        O737   1.372       .  S
C734        H738   1.084       .  S
O735        H740   0.991       .  S
O737        H741   0.992       .  S
C743        N744   1.362       .  A
C743        N748   1.358       .  A
C743       C1094   1.486       .  S
N744        C745   1.361       .  A
C745        N746   1.361       .  A
C745        C753   1.472       .  S
N746        C747   1.357       .  A
C747        N748   1.356       .  A
C747       C1070   1.486       .  S
C749        N750   1.361       .  A
C749        N754   1.363       .  A
C749       C1417   1.487       .  S
N750        C751   1.359       .  A
C751        N752   1.355       .  A
C751       C1031   1.485       .  S
N752        C753   1.357       .  A
C753        N754   1.362       .  A
C755        N756   1.361       .  A
C755        N760   1.360       .  A
C755        C974   1.483       .  S
N756        C757   1.360       .  A
C757        N758   1.358       .  A
C757        C763   1.469       .  S
N758        C759   1.357       .  A
C759        N760   1.359       .  A
C759        C998   1.487       .  S
C761        N762   1.361       .  A
C761        N766   1.358       .  A
C761       C1306   1.483       .  S
N762        C763   1.360       .  A
C763        N764   1.358       .  A
N764        C765   1.356       .  A
C765        N766   1.356       .  A
C765        C959   1.480       .  S
C767        N768   1.363       .  A
C767        N772   1.361       .  A
C767        C902   1.488       .  S
N768        C769   1.361       .  A
C769        N770   1.356       .  A
C769        C775   1.470       .  S
N770        C771   1.356       .  A
C771        N772   1.359       .  A
C771        C887   1.483       .  S
C773        N774   1.360       .  A
C773        N778   1.360       .  A
C773       C1225   1.487       .  S
N774        C775   1.359       .  A
C775        N776   1.360       .  A
N776        C777   1.358       .  A
C777        N778   1.359       .  A
C777        C830   1.487       .  S
O779       Mn805   2.092       .  S
O779       C2290   1.271   1_455  A
C780       C1103   1.489       .  S
C780        O813   1.271       .  A
C780        O810   1.273       .  A
O781       Mn788   2.166       .  S
O781       Mn799   2.125       .  S
O781       Mn803   2.174       .  S
O781      Mn2289   2.122       .  S
O782       Mn816   2.109       .  S
O782        C792   1.274       .  A
O783       Mn799   2.097       .  S
O783        C806   1.273       .  A
O784       Mn803   2.108       .  S
O784        C811   1.253       .  A
O785       Mn805   1.966       .  S
O785        C801   1.216       .  S
C786        C839   1.485       .  S
C786        O789   1.254       .  A
C786        O812   1.217       .  S
O787       Mn788   2.169       .  S
O787       Mn821   2.124       .  S
O787       Mn803   2.168       .  S
Mn788       O793   2.092       .  S
Mn788      O2304   2.111       .  S
Mn788      O1536   2.161   1_565  S
O790       Mn797   2.092       .  S
O790        C792   1.272       .  A
C791        C878   1.483       .  S
C791        O817   1.252       .  A
C791        O804   1.218       .  S
C792       C1055   1.496       .  S
O793        C818   1.251       .  A
O794      Mn1530   2.162   1_455  S
O794       Mn797   2.118       .  S
O794       Mn816   2.118       .  S
O794      Mn1545   2.167   1_455  S
O795       Mn799   1.965       .  S
O795       Mn821   1.963       .  S
O795        C818   1.221       .  S
C796        C926   1.492       .  S
C796        O798   1.272       .  A
Mn797       O810   2.096       .  S
Mn797      O2296   1.959   1_455  S
Mn797      O2288   1.957   1_455  S
O798       Mn821   2.091       .  S
Mn799       O815   2.085       .  S
Mn799       O809   1.954       .  S
O800       Mn805   2.114       .  S
O800       C2286   1.276   1_455  A
C801        C950   1.482       .  S
C801        O819   1.254       .  A
C802        C911   1.494       .  S
C802       O2284   1.276       .  A
C802        O815   1.271       .  A
Mn803      O2303   2.116       .  S
Mn803      O1536   2.164   1_565  S
O804      Mn2281   1.959       .  S
O804       Mn807   1.955       .  S
Mn805      O2265   2.122   1_455  S
Mn805       O823   1.957       .  S
C806        C863   1.492       .  S
C806       O2263   1.271       .  A
Mn807       O814   2.091       .  S
Mn807       O822   2.095       .  S
Mn807       O812   1.959       .  S
C808        C983   1.489       .  S
C808        O824   1.272       .  A
O809       Mn821   1.961       .  S
O809        C811   1.218       .  S
C811       C1022   1.481       .  S
O812      Mn2281   1.959       .  S
O813       Mn816   2.087       .  S
C818       C1079   1.479       .  S
O819      Mn2287   2.114   1_455  S
O820      Mn2272   2.118   1_455  S
O820        C825   1.254       .  A
Mn821       O824   2.096       .  S
O823        C825   1.216       .  S
C825       C1007   1.486       .  S
C826        C827   1.404       .  A
C826       C1202   1.403       .  A
C826        H836   1.083       .  S
C827        C832   1.488       .  S
C827        C828   1.411       .  A
C828        C829   1.398       .  A
C828       O2317   1.372       .  S
C829       C1201   1.404       .  A
C829       H2318   1.084       .  S
C830       C1200   1.405   1_554  A
C830        C831   1.413       .  A
C831       C1197   1.404       .  A
C831        O835   1.372       .  S
C832        C837   1.410       .  A
C832        C841   1.402       .  A
O833       C2312   1.372       .  S
O833        H849   0.992       .  S
H834       C2313   1.084       .  S
O835        H846   0.992       .  S
C837        C838   1.406       .  A
C837        O842   1.372       .  S
C838        C839   1.406       .  A
C838        H843   1.083       .  S
C839        C840   1.414       .  A
C840        C841   1.395       .  A
C840        O844   1.373       .  S
C841        H845   1.084       .  S
O842       H1218   0.992       .  S
O844        H848   0.991       .  S
H847       O1213   0.992   1_554  S
C850        C851   1.401       .  A
C850       C1226   1.404       .  A
C850        H860   1.084       .  S
C851        C856   1.477       .  S
C851        C852   1.404       .  A
C852        C853   1.398       .  A
C852       O2341   1.372       .  S
C853        C854   1.408       .  A
C853       H2342   1.083       .  S
C854       C1144   1.488       .  S
C854       C1226   1.414       .  A
C855       C1221   1.403   1_554  A
C855       C1225   1.414       .  A
C855        O859   1.371       .  S
C856        C861   1.404       .  A
C856       C2349   1.399       .  A
O857       C2336   1.372       .  S
O857        H873   0.992       .  S
H858       C2337   1.083       .  S
O859        H870   0.992       .  S
C861        C862   1.400       .  A
C861        O866   1.371       .  S
C862        C863   1.410       .  A
C862        H867   1.083       .  S
C863       C2348   1.417       .  A
C864       C2347   1.417   1_455  A
C864        C865   1.402       .  A
C864        O868   1.372       .  S
C865       C2340   1.399   1_455  A
C865        H869   1.084       .  S
O866        H871   0.991       .  S
O868        H872   0.990       .  S
C874        C875   1.406       .  A
C874        C879   1.404       .  A
C874        H884   1.083       .  S
C875        C880   1.486       .  S
C875       C2360   1.408       .  A
C876       C2359   1.407       .  A
C876        C877   1.393       .  A
C876        O881   1.372       .  S
C877       C2362   1.406       .  A
C877        H882   1.084       .  S
C878       C2361   1.406       .  A
C878        C879   1.411       .  A
C879        O883   1.371       .  S
C880       C2369   1.408       .  A
C880        C889   1.405       .  A
O881        H897   0.992   1_655  S
O883        H894   0.992       .  S
C885       C2364   1.407       .  A
C885       C2370   1.400       .  A
C885        O890   1.372   1_655  S
C886       C2369   1.401       .  A
C886        C887   1.407       .  A
C886       H2375   1.083       .  S
C887        C888   1.410       .  A
C888        C889   1.399       .  A
C888        O892   1.371       .  S
C889        H893   1.084       .  S
O890        H895   0.992   1_455  S
H891       C2370   1.084   1_455  S
O892        H896   0.992       .  S
C898        C899   1.402       .  A
C898        C903   1.402       .  A
C898        H908   1.084       .  S
C899        C904   1.485       .  S
C899       C2384   1.408       .  A
C900       C2383   1.408       .  A
C900        C901   1.403       .  A
C900        O905   1.371   1_655  S
C901       C2386   1.407       .  A
C901        H906   1.083       .  S
C902       C2385   1.407       .  A
C902        C903   1.413       .  A
C903        O907   1.372       .  S
C904        C909   1.406       .  A
C904       C2397   1.403       .  A
O905        H921   0.992   1_455  S
O907        H918   0.992       .  S
C909        C910   1.401       .  A
C909        O914   1.372       .  S
C910        C911   1.411       .  A
C910        H915   1.083       .  S
C911       C2396   1.414       .  A
C912       C2395   1.414   1_455  A
C912        C913   1.403       .  A
C912        O916   1.371       .  S
C913       C2388   1.403   1_455  A
C913        H917   1.084       .  S
O914        H919   0.992       .  S
O916        H920   0.992       .  S
C922        C923   1.402   1_545  A
C922        C927   1.402       .  A
C923        C928   1.483       .  S
C923        C924   1.407       .  A
C924        C925   1.398       .  A
C924        O929   1.372       .  S
C925        C926   1.409       .  A
C925        H930   1.083       .  S
C926        C927   1.416   1_565  A
C928        C933   1.408       .  A
C928        C937   1.401       .  A
O929        H945   0.992       .  S
O931        H942   0.992       .  S
C933       C1305   1.403       .  A
C933       O1309   1.371   1_565  S
C934       C1304   1.402   1_554  A
C934       C1306   1.406       .  A
C934        H939   1.083   1_565  S
C935       C1132   1.488       .  S
C935       C1305   1.408       .  A
C935        C936   1.414       .  A
C936        C937   1.398       .  A
O938       C1304   1.371   1_544  S
O938        H943   0.991   1_545  S
O940        H944   0.992       .  S
C946        C947   1.400       .  A
C946        C951   1.395       .  A
C947        C952   1.483       .  S
C947        C948   1.410       .  A
C948        C949   1.405       .  A
C948        O953   1.371       .  S
C949        C950   1.406       .  A
C949        H954   1.083       .  S
C950        C951   1.414       .  A
C952        C957   1.408       .  A
C952        C961   1.403       .  A
O953        H969   0.992       .  S
O955        H966   0.991       .  S
C957        C958   1.399       .  A
C957        O962   1.373       .  S
C958       C1330   1.405       .  A
C958        H963   1.083       .  S
C959       C1329   1.404   1_554  A
C959        C960   1.412       .  A
C960       C1332   1.400   1_554  A
C961       C1331   1.403       .  A
O962        H967   0.992       .  S
O964        H968   0.992       .  S
C970        C971   1.402   1_545  A
C970        C975   1.400       .  A
C970        H980   1.084       .  S
C971        C976   1.481       .  S
C971        C972   1.407       .  A
C972        C973   1.403       .  A
C972        O977   1.371       .  S
C973        C974   1.407       .  A
C973        H978   1.083       .  S
C974        C975   1.411   1_565  A
C975        O979   1.372       .  S
C976        C981   1.405   1_565  A
C976        C985   1.402       .  A
O977        H993   0.992       .  S
O979        H990   0.992       .  S
C981        C982   1.400       .  A
C982        C983   1.408   1_545  A
C983        C984   1.415       .  A
C984        C985   1.403       .  A
C984        O988   1.372       .  S
C985        H989   1.084       .  S
O986        H991   0.992       .  S
O988        H992   0.991       .  S
C994        C995   1.404       .  A
C994        C999   1.403       .  A
C994       H1004   1.083       .  S
C995       C1000   1.489       .  S
C995        C996   1.411   1_565  A
C996        C997   1.399       .  A
C997        C998   1.405   1_545  A
C997       H1002   1.083       .  S
C998        C999   1.414       .  A
C999       O1003   1.372       .  S
C1000      C1005   1.411       .  A
C1000      C1009   1.402       .  A
O1001      H1017   0.992       .  S
O1003      H1014   0.992       .  S
C1005      C1006   1.406       .  A
C1005      O1010   1.371   1_565  S
C1006      C1007   1.406       .  A
C1006      H1011   1.083       .  S
C1007      C1008   1.414       .  A
C1008      C1009   1.397       .  A
C1008      O1012   1.372       .  S
C1009      H1013   1.084       .  S
O1012      H1016   0.991       .  S
C1018      C1019   1.400       .  A
C1018      C1023   1.395       .  A
C1018      H1028   1.084       .  S
C1019      C1024   1.481       .  S
C1019      C1020   1.409       .  A
C1020      C1021   1.405       .  A
C1020      O1025   1.371       .  S
C1021      C1022   1.406       .  A
C1021      H1026   1.083       .  S
C1022      C1023   1.412       .  A
C1023      O1027   1.372       .  S
C1024      C1029   1.408       .  A
C1024      C1033   1.401       .  A
O1025      H1412   0.991       .  S
O1027      H1038   0.992       .  S
C1029      C1030   1.399       .  A
C1029      O1034   1.372       .  S
C1030      C1402   1.405       .  A
C1030      H1035   1.083       .  S
C1031      C1401   1.405   1_554  A
C1031      C1403   1.415       .  A
C1032      C1402   1.416       .  A
C1032      C1033   1.402       .  A
C1032      O1407   1.372       .  S
C1033      H1037   1.084       .  S
O1034      H1039   0.992       .  S
O1036      C1403   1.372       .  S
O1036      H1040   0.992       .  S
H1041      O1396   0.992       .  S
C1042      C1043   1.404       .  A
C1042      C1047   1.401       .  A
C1042      H1052   1.084       .  S
C1043      C1048   1.490       .  S
C1043      C1044   1.410       .  A
C1044      C1045   1.404       .  A
C1044      O1049   1.371       .  S
C1045      C1046   1.407       .  A
C1045      H1421   1.083       .  S
C1046      C1120   1.489       .  S
C1046      C1047   1.413       .  A
C1047      O1051   1.372       .  S
C1048      C1053   1.408       .  A
C1048      C1057   1.404       .  A
O1049      H1065   0.992       .  S
H1050      C1416   1.083       .  S
O1051      H1433   0.992       .  S
C1053      C1054   1.402       .  A
C1053      O1058   1.372       .  S
C1054      C1055   1.410       .  A
C1054      H1059   1.084       .  S
C1055      C1056   1.415       .  A
C1056      C1057   1.403       .  A
C1056      O1060   1.370       .  S
C1057      H1061   1.084       .  S
O1058      H1063   0.991       .  S
O1060      H1064   0.992       .  S
H1062      O1422   0.992       .  S
C1066      C1067   1.402       .  A
C1066      C1071   1.397       .  A
C1066      H1076   1.084       .  S
C1067      C1072   1.483       .  S
C1067      C1068   1.408       .  A
C1068      C1069   1.403       .  A
C1068      O1073   1.372       .  S
C1069      C1070   1.408       .  A
C1069      H1074   1.083       .  S
C1070      C1071   1.413       .  A
C1071      O1075   1.371       .  S
C1072      C1077   1.408       .  A
C1072      C1081   1.404       .  A
O1073      H1089   0.992       .  S
O1075      H1086   0.992       .  S
C1077      C1078   1.396       .  A
C1077      O1082   1.373       .  S
C1078      C1079   1.403       .  A
C1078      H1083   1.084       .  S
C1079      C1080   1.411       .  A
C1080      C1081   1.403       .  A
C1080      O1084   1.372       .  S
C1081      H1085   1.083       .  S
O1082      H1087   0.992       .  S
O1084      H1088   0.992       .  S
C1090      C1091   1.398       .  A
C1090      C1095   1.396       .  A
C1090      H1100   1.084       .  S
C1091      C1096   1.476       .  S
C1091      C1092   1.405       .  A
C1092      C1093   1.404       .  A
C1092      O1097   1.371       .  S
C1093      C1094   1.408       .  A
C1093      H1098   1.083       .  S
C1094      C1095   1.416       .  A
C1095      O1099   1.372       .  S
C1096      C1101   1.404       .  A
C1096      C1105   1.401       .  A
O1097      H1113   0.992       .  S
O1099      H1110   0.992       .  S
C1101      C1102   1.400       .  A
C1101      O1106   1.372       .  S
C1102      C1103   1.411       .  A
C1102      H1107   1.084       .  S
C1103      C1104   1.415       .  A
C1104      C1105   1.399       .  A
C1104      O1108   1.371       .  S
C1105      H1109   1.084       .  S
O1106      H1111   0.992       .  S
O1108      H1112   0.992       .  S
C1114      N1115   1.361       .  A
C1114      N1119   1.357       .  A
C1114      C1465   1.487       .  S
N1115      C1116   1.360       .  A
C1116      N1117   1.361       .  A
C1116      C1124   1.470       .  S
N1117      C1118   1.358       .  A
C1118      N1119   1.356       .  A
C1118      C1441   1.486       .  S
C1120      N1121   1.361       .  A
C1120      N1125   1.363       .  A
N1121      C1122   1.360       .  A
C1122      N1123   1.355       .  A
C1122      C1402   1.486       .  S
N1123      C1124   1.356       .  A
C1124      N1125   1.362       .  A
C1126      N1127   1.362       .  A
C1126      N1131   1.361       .  A
C1126      C1345   1.486       .  S
N1127      C1128   1.361       .  A
C1128      N1129   1.358       .  A
C1128      C1134   1.471       .  S
N1129      C1130   1.357       .  A
C1130      N1131   1.360       .  A
C1130      C1369   1.490       .  S
C1132      N1133   1.362       .  A
C1132      N1137   1.358       .  A
N1133      C1134   1.361       .  A
C1134      N1135   1.360       .  A
N1135      C1136   1.357       .  A
C1136      N1137   1.357       .  A
C1136      C1330   1.484       .  S
C1138      N1139   1.363       .  A
C1138      N1143   1.360       .  A
C1138      C1273   1.486       .  S
N1139      C1140   1.361       .  A
C1140      N1141   1.357       .  A
C1140      C1146   1.470       .  S
N1141      C1142   1.355       .  A
C1142      N1143   1.358       .  A
C1142      C1258   1.479       .  S
C1144      N1145   1.361       .  A
C1144      N1149   1.360       .  A
N1145      C1146   1.360       .  A
C1146      N1147   1.359       .  A
N1147      C1148   1.356       .  A
C1148      N1149   1.358       .  A
C1148      C1201   1.485       .  S
O1150     Mn1176   2.093       .  S
O1150      C2661   1.271   1_455  A
C1151      C1474   1.488       .  S
C1151      O1184   1.271       .  A
C1151      O1181   1.272       .  A
O1152     Mn1159   2.164       .  S
O1152     Mn1170   2.126       .  S
O1152     Mn1174   2.174       .  S
O1152     Mn2660   2.120       .  S
O1153     Mn1187   2.110       .  S
O1153      C1163   1.275       .  A
O1154     Mn1170   2.093       .  S
O1154      C1177   1.272       .  A
O1155     Mn1174   2.109       .  S
O1155      C1182   1.254       .  A
O1156     Mn1176   1.961       .  S
O1156      C1172   1.214       .  S
C1157      C1210   1.484       .  S
C1157      O1160   1.254       .  A
C1157      O1183   1.217       .  S
O1158     Mn1159   2.169       .  S
O1158     Mn1192   2.125       .  S
O1158     Mn1174   2.166       .  S
Mn1159     O1164   2.093       .  S
Mn1159     O2675   2.114       .  S
Mn1159     O1907   2.164   1_565  S
O1161     Mn1168   2.091       .  S
O1161      C1163   1.271       .  A
C1162      C1249   1.482       .  S
C1162      O1188   1.252       .  A
C1162      O1175   1.218       .  S
C1163      C1426   1.495       .  S
O1164      C1189   1.252       .  A
O1165     Mn1901   2.170   1_455  S
O1165     Mn1168   2.121       .  S
O1165     Mn1187   2.118       .  S
O1165     Mn1916   2.169   1_455  S
O1166     Mn1170   1.963       .  S
O1166     Mn1192   1.964       .  S
O1166      C1189   1.221       .  S
C1167      C1297   1.490       .  S
C1167      O1169   1.272       .  A
Mn1168     O1181   2.094       .  S
Mn1168     O2667   1.959   1_455  S
Mn1168     O2659   1.955   1_455  S
O1169     Mn1192   2.088       .  S
Mn1170     O1186   2.083       .  S
Mn1170     O1180   1.953       .  S
O1171     Mn1176   2.109       .  S
O1171      C2657   1.275   1_455  A
C1172      C1321   1.479       .  S
C1172      O1190   1.253       .  A
C1173      C1282   1.492       .  S
C1173      O2655   1.275       .  A
C1173      O1186   1.270       .  A
Mn1174     O2674   2.113       .  S
Mn1174     O1907   2.168   1_565  S
O1175     Mn2652   1.956       .  S
O1175     Mn1178   1.955       .  S
Mn1176     O2636   2.119   1_455  S
Mn1176     O1194   1.959       .  S
C1177      C1234   1.491       .  S
C1177      O2634   1.271       .  A
Mn1178     O1185   2.084       .  S
Mn1178     O1193   2.098       .  S
Mn1178     O1183   1.958       .  S
C1179      C1354   1.490       .  S
C1179      O1195   1.272       .  A
O1180     Mn1192   1.963       .  S
O1180      C1182   1.219       .  S
C1182      C1393   1.484       .  S
O1183     Mn2652   1.958       .  S
O1184     Mn1187   2.087       .  S
C1189      C1450   1.480       .  S
O1190     Mn2658   2.113   1_455  S
O1191     Mn2643   2.116   1_455  S
O1191      C1196   1.254       .  A
Mn1192     O1195   2.099       .  S
O1194      C1196   1.216       .  S
C1196      C1378   1.486       .  S
C1197      C1198   1.405   1_554  A
C1197      H1207   1.083       .  S
C1198      C1203   1.489       .  S
C1198      C1199   1.410       .  A
C1199      C1200   1.398       .  A
C1199      O2688   1.372       .  S
C1200      H2689   1.084       .  S
C1201      C1202   1.413       .  A
C1202      O1206   1.372       .  S
C1203      C1208   1.410       .  A
C1203      C1212   1.402       .  A
O1204      C2683   1.372       .  S
O1204      H1220   0.992       .  S
H1205      C2684   1.084       .  S
O1206      H1217   0.992       .  S
C1208      C1209   1.406       .  A
C1208      O1213   1.372       .  S
C1209      C1210   1.406       .  A
C1209      H1214   1.083       .  S
C1210      C1211   1.413       .  A
C1211      C1212   1.395       .  A
C1211      O1215   1.373       .  S
C1212      H1216   1.084       .  S
O1215      H1219   0.991       .  S
C1221      C1222   1.401       .  A
C1221      H1231   1.084   1_556  S
C1222      C1227   1.477       .  S
C1222      C1223   1.404       .  A
C1223      C1224   1.398       .  A
C1223      O2712   1.372       .  S
C1224      C1225   1.407   1_556  A
C1224      H2713   1.083       .  S
C1226      O1230   1.371       .  S
C1227      C1232   1.405       .  A
C1227      C2720   1.399       .  A
O1228      C2707   1.372       .  S
O1228      H1244   0.992       .  S
H1229      C2708   1.083       .  S
O1230      H1241   0.992       .  S
C1232      C1233   1.400       .  A
C1232      O1237   1.372       .  S
C1233      C1234   1.410       .  A
C1233      H1238   1.083       .  S
C1234      C2719   1.416       .  A
C1235      C2718   1.416   1_455  A
C1235      C1236   1.402       .  A
C1235      O1239   1.372       .  S
C1236      C2711   1.399   1_455  A
C1236      H1240   1.084       .  S
O1237      H1242   0.992       .  S
O1239      H1243   0.990       .  S
C1245      C1246   1.406       .  A
C1245      C1250   1.404       .  A
C1245      H1255   1.083       .  S
C1246      C1251   1.483       .  S
C1246      C2731   1.407       .  A
C1247      C2730   1.407       .  A
C1247      C1248   1.393       .  A
C1247      O1252   1.372       .  S
C1248      C2733   1.406       .  A
C1248      H1253   1.084       .  S
C1249      C2732   1.406       .  A
C1249      C1250   1.411       .  A
C1250      O1254   1.371       .  S
C1251      C2740   1.407       .  A
C1251      C1260   1.404       .  A
O1252      H1268   0.992   1_655  S
O1254      H1265   0.992       .  S
C1256      C2735   1.407       .  A
C1256      C2741   1.401       .  A
C1256      O1261   1.372   1_655  S
C1257      C2740   1.401       .  A
C1257      C1258   1.406       .  A
C1257      H2746   1.084       .  S
C1258      C1259   1.409       .  A
C1259      C1260   1.398       .  A
C1259      O1263   1.371       .  S
C1260      H1264   1.084       .  S
O1261      H1266   0.992   1_455  S
H1262      C2741   1.083       .  S
O1263      H1267   0.992       .  S
C1269      C1270   1.402       .  A
C1269      C1274   1.401       .  A
C1269      H1279   1.084       .  S
C1270      C1275   1.482       .  S
C1270      C2755   1.407       .  A
C1271      C2754   1.407       .  A
C1271      C1272   1.403       .  A
C1271      O1276   1.371   1_655  S
C1272      C2757   1.407       .  A
C1272      H1277   1.083   1_655  S
C1273      C2756   1.407       .  A
C1273      C1274   1.413       .  A
C1274      O1278   1.372       .  S
C1275      C1280   1.405       .  A
C1275      C2768   1.403       .  A
O1276      H1292   0.992   1_455  S
O1278      H1289   0.992       .  S
C1280      C1281   1.400       .  A
C1280      O1285   1.372       .  S
C1281      C1282   1.411       .  A
C1281      H1286   1.083       .  S
C1282      C2767   1.414       .  A
C1283      C2766   1.414   1_455  A
C1283      C1284   1.402       .  A
C1283      O1287   1.371       .  S
C1284      C2759   1.403   1_455  A
C1284      H1288   1.084       .  S
O1285      H1290   0.992       .  S
O1287      H1291   0.992       .  S
C1293      C1294   1.402   1_545  A
C1293      C1298   1.401       .  A
C1294      C1299   1.483       .  S
C1294      C1295   1.407       .  A
C1295      C1296   1.398       .  A
C1295      O1300   1.372       .  S
C1296      C1297   1.409       .  A
C1296      H1301   1.083       .  S
C1297      C1298   1.415   1_565  A
C1299      C1304   1.409       .  A
C1299      C1308   1.402       .  A
O1300      H1316   0.992       .  S
O1302      H1313   0.992       .  S
C1305      H1310   1.083       .  S
C1306      C1307   1.412   1_554  A
C1307      C1308   1.398       .  A
O1309      H1314   0.992   1_545  S
O1311      H1315   0.992       .  S
C1317      C1318   1.399       .  A
C1317      C1322   1.393       .  A
C1318      C1323   1.480       .  S
C1318      C1319   1.409       .  A
C1319      C1320   1.403       .  A
C1319      O1324   1.371       .  S
C1320      C1321   1.405       .  A
C1320      H1325   1.083       .  S
C1321      C1322   1.414       .  A
C1323      C1328   1.408       .  A
C1323      C1332   1.402       .  A
O1324      H1340   0.992       .  S
O1326      H1337   0.991       .  S
C1328      C1329   1.398       .  A
C1328      O1333   1.373       .  S
C1329      H1334   1.084       .  S
C1330      C1331   1.413       .  A
O1333      H1338   0.992       .  S
O1335      H1339   0.992       .  S
C1341      C1342   1.402   1_545  A
C1341      C1346   1.401       .  A
C1341      H1351   1.084       .  S
C1342      C1347   1.482       .  S
C1342      C1343   1.407       .  A
C1343      C1344   1.404       .  A
C1343      O1348   1.371       .  S
C1344      C1345   1.408       .  A
C1344      H1349   1.083       .  S
C1345      C1346   1.412   1_565  A
C1346      O1350   1.372       .  S
C1347      C1352   1.405   1_565  A
C1347      C1356   1.403       .  A
O1348      H1364   0.992       .  S
O1350      H1361   0.992       .  S
C1352      C1353   1.401       .  A
C1353      C1354   1.409   1_545  A
C1354      C1355   1.415       .  A
C1355      C1356   1.403       .  A
C1355      O1359   1.372       .  S
C1356      H1360   1.084       .  S
O1357      H1362   0.992       .  S
O1359      H1363   0.992       .  S
C1365      C1366   1.404       .  A
C1365      C1370   1.402       .  A
C1365      H1375   1.083       .  S
C1366      C1371   1.493       .  S
C1366      C1367   1.412   1_565  A
C1367      C1368   1.400       .  A
C1368      C1369   1.405   1_545  A
C1368      H1373   1.083       .  S
C1369      C1370   1.415       .  A
C1370      O1374   1.372       .  S
C1371      C1376   1.413       .  A
C1371      C1380   1.403       .  A
O1372      H1388   0.992       .  S
O1374      H1385   0.992       .  S
C1376      C1377   1.406       .  A
C1376      O1381   1.371   1_565  S
C1377      C1378   1.405       .  A
C1377      H1382   1.083       .  S
C1378      C1379   1.413       .  A
C1379      C1380   1.396       .  A
C1379      O1383   1.372       .  S
C1380      H1384   1.083       .  S
O1383      H1387   0.991       .  S
C1389      C1390   1.400       .  A
C1389      C1394   1.396       .  A
C1389      H1399   1.084       .  S
C1390      C1395   1.482       .  S
C1390      C1391   1.409       .  A
C1391      C1392   1.406       .  A
C1391      O1396   1.371       .  S
C1392      C1393   1.407       .  A
C1392      H1397   1.083       .  S
C1393      C1394   1.413       .  A
C1394      O1398   1.372       .  S
C1395      C1400   1.408       .  A
C1395      C1404   1.401   1_556  A
O1398      H1409   0.992       .  S
C1400      C1401   1.400       .  A
C1400      O1405   1.372       .  S
C1401      H1406   1.084       .  S
C1403      C1404   1.402       .  A
C1404      H1408   1.084       .  S
O1405      H1410   0.992       .  S
O1407      H1411   0.992       .  S
C1413      C1414   1.404       .  A
C1413      C1418   1.402       .  A
C1413      H1423   1.083       .  S
C1414      C1419   1.491       .  S
C1414      C1415   1.411       .  A
C1415      C1416   1.404   1_556  A
C1415      O1420   1.371   1_556  S
C1416      C1417   1.405       .  A
C1417      C1418   1.412   1_554  A
C1418      O1422   1.372       .  S
C1419      C1424   1.408       .  A
C1419      C1428   1.404       .  A
O1420      H1436   0.991       .  S
C1424      C1425   1.403       .  A
C1424      O1429   1.372       .  S
C1425      C1426   1.411       .  A
C1425      H1430   1.084       .  S
C1426      C1427   1.414       .  A
C1427      C1428   1.403       .  A
C1427      O1431   1.370       .  S
C1428      H1432   1.084       .  S
O1429      H1434   0.992       .  S
O1431      H1435   0.992       .  S
C1437      C1438   1.402       .  A
C1437      C1442   1.398       .  A
C1437      H1447   1.084       .  S
C1438      C1443   1.483       .  S
C1438      C1439   1.408       .  A
C1439      C1440   1.402       .  A
C1439      O1444   1.372       .  S
C1440      C1441   1.407       .  A
C1440      H1445   1.083       .  S
C1441      C1442   1.413       .  A
C1442      O1446   1.372       .  S
C1443      C1448   1.408       .  A
C1443      C1452   1.404       .  A
O1444      H1460   0.992       .  S
O1446      H1457   0.992       .  S
C1448      C1449   1.397       .  A
C1448      O1453   1.373       .  S
C1449      C1450   1.404       .  A
C1449      H1454   1.084       .  S
C1450      C1451   1.411       .  A
C1451      C1452   1.403       .  A
C1451      O1455   1.372       .  S
C1452      H1456   1.083       .  S
O1453      H1458   0.992       .  S
O1455      H1459   0.992       .  S
C1461      C1462   1.398       .  A
C1461      C1466   1.396       .  A
C1461      H1471   1.084       .  S
C1462      C1467   1.474       .  S
C1462      C1463   1.404       .  A
C1463      C1464   1.402       .  A
C1463      O1468   1.371       .  S
C1464      C1465   1.409       .  A
C1464      H1469   1.083       .  S
C1465      C1466   1.416       .  A
C1466      O1470   1.372       .  S
C1467      C1472   1.404       .  A
C1467      C1476   1.400       .  A
O1468      H1484   0.992       .  S
O1470      H1481   0.992       .  S
C1472      C1473   1.399       .  A
C1472      O1477   1.372       .  S
C1473      C1474   1.410       .  A
C1473      H1478   1.084       .  S
C1474      C1475   1.415       .  A
C1475      C1476   1.400       .  A
C1475      O1479   1.372       .  S
C1476      H1480   1.084       .  S
O1477      H1482   0.992       .  S
O1479      H1483   0.992       .  S
C1485      N1486   1.360       .  A
C1485      N1490   1.357       .  A
C1485      C1836   1.482       .  S
N1486      C1487   1.358       .  A
C1487      N1488   1.359       .  A
C1487      C1495   1.466       .  S
N1488      C1489   1.356       .  A
C1489      N1490   1.356       .  A
C1489      C1812   1.484       .  S
C1491      N1492   1.361       .  A
C1491      N1496   1.362       .  A
C1491      C2159   1.487       .  S
N1492      C1493   1.359       .  A
C1493      N1494   1.353       .  A
C1493      C1773   1.483       .  S
N1494      C1495   1.355       .  A
C1495      N1496   1.361       .  A
C1497      N1498   1.362       .  A
C1497      N1502   1.359       .  A
C1497      C1716   1.487       .  S
N1498      C1499   1.361       .  A
C1499      N1500   1.359       .  A
C1499      C1505   1.470       .  S
N1500      C1501   1.356       .  A
C1501      N1502   1.357       .  A
C1501      C1740   1.487       .  S
C1503      N1504   1.362       .  A
C1503      N1508   1.358       .  A
C1503      C2048   1.485       .  S
N1504      C1505   1.361       .  A
C1505      N1506   1.359       .  A
N1506      C1507   1.356       .  A
C1507      N1508   1.357       .  A
C1507      C1701   1.483       .  S
C1509      N1510   1.363       .  A
C1509      N1514   1.361       .  A
C1509      C1644   1.488       .  S
N1510      C1511   1.363       .  A
C1511      N1512   1.357       .  A
C1511      C1517   1.472       .  S
N1512      C1513   1.357       .  A
C1513      N1514   1.360       .  A
C1513      C1629   1.484       .  S
C1515      N1516   1.360       .  A
C1515      N1520   1.361       .  A
C1515      C1967   1.492       .  S
N1516      C1517   1.358       .  A
C1517      N1518   1.361       .  A
N1518      C1519   1.359       .  A
C1519      N1520   1.359       .  A
C1519      C1572   1.490       .  S
O1521     Mn1547   2.083       .  S
C1522      C1845   1.483       .  S
C1522      O1555   1.269       .  A
C1522      O1552   1.272       .  A
O1523     Mn1530   2.164       .  S
O1523     Mn1541   2.126       .  S
O1523     Mn1545   2.170       .  S
O1524     Mn1558   2.110       .  S
O1524      C1534   1.275       .  A
O1525     Mn1541   2.095       .  S
O1525      C1548   1.273       .  A
O1526     Mn1545   2.101       .  S
O1526      C1553   1.253       .  A
O1527     Mn2300   1.954       .  S
O1527     Mn1547   1.960       .  S
O1527      C1543   1.215       .  S
C1528      C1581   1.486       .  S
C1528      O1531   1.256       .  A
C1528      O1554   1.216       .  S
O1529     Mn2291   2.121       .  S
O1529     Mn1530   2.170       .  S
O1529     Mn1563   2.127       .  S
O1529     Mn1545   2.166       .  S
Mn1530     O2301   2.106       .  S
Mn1530     O1535   2.089       .  S
O1531     Mn2287   2.119   1_545  S
O1532     Mn1539   2.089       .  S
O1532      C1534   1.271       .  A
C1533      C1620   1.483       .  S
C1533      O1559   1.253       .  A
C1533      O1546   1.217       .  S
C1534      C1797   1.493       .  S
O1535      C1560   1.251       .  A
O1536     Mn1539   2.122       .  S
O1536     Mn1558   2.119       .  S
O1537     Mn1541   1.964       .  S
O1537     Mn1563   1.961       .  S
O1537      C1560   1.220       .  S
C1538      C1668   1.492       .  S
C1538      O2306   1.272       .  A
C1538      O1540   1.272       .  A
Mn1539     O1552   2.094       .  S
O1540     Mn1563   2.092       .  S
Mn1541     O1557   2.093       .  S
Mn1541     O1551   1.961       .  S
O1542     Mn1547   2.105       .  S
C1543      C1692   1.480       .  S
C1543      O1561   1.253       .  A
C1544      C1653   1.495       .  S
C1544      O1557   1.272       .  A
Mn1545     O2273   2.111       .  S
O1546     Mn1549   1.953       .  S
Mn1547     O1565   1.955       .  S
C1548      C1605   1.491       .  S
Mn1549     O1556   2.086       .  S
Mn1549     O1564   2.097       .  S
Mn1549     O2271   2.121   1_545  S
Mn1549     O1554   1.956       .  S
C1550      C1725   1.492       .  S
C1550      O2298   1.272       .  A
C1550      O1566   1.272       .  A
O1551     Mn1563   1.962       .  S
O1551      C1553   1.220       .  S
C1553      C1764   1.481       .  S
O1555     Mn1558   2.073       .  S
O1556      C2292   1.271   1_545  A
Mn1558     O2269   1.953   1_545  S
Mn1558     O2307   1.963   1_545  S
O1559     Mn2272   2.111   1_545  S
C1560      C1821   1.476       .  S
O1562      C1567   1.253       .  A
Mn1563     O1566   2.098       .  S
O1564      C2280   1.272   1_545  A
O1565     Mn2300   1.959       .  S
O1565      C1567   1.216       .  S
C1567      C1749   1.482       .  S
C1568      C1569   1.406       .  A
C1568      C1944   1.404       .  A
C1568      H1578   1.083       .  S
C1569      C1574   1.492       .  S
C1569      C1570   1.411   1_655  A
C1570      C1571   1.399       .  A
C1571      C1943   1.405   1_455  A
C1572      C1942   1.406   1_654  A
C1572      C1573   1.413       .  A
C1573      C1939   1.404       .  A
C1573      O1577   1.371       .  S
C1574      C1579   1.412   1_655  A
C1574      C1583   1.403       .  A
O1575      H1591   0.991       .  S
O1577      H1588   0.992       .  S
C1579      C1580   1.407       .  A
C1579      O1584   1.372       .  S
C1580      C1581   1.405   1_455  A
C1580      H1585   1.083       .  S
C1581      C1582   1.414       .  A
C1582      C1583   1.397       .  A
C1582      O1586   1.373       .  S
C1583      H1587   1.083       .  S
O1584      H1960   0.992   1_455  S
O1586      H1590   0.990       .  S
H1589      O1955   0.992   1_554  S
C1592      C1593   1.402       .  A
C1592      C1968   1.403       .  A
C1592      H1602   1.084       .  S
C1593      C1598   1.476       .  S
C1593      C1594   1.404       .  A
C1594      C1595   1.397       .  A
C1595      C1596   1.407       .  A
C1596      C1886   1.485       .  S
C1596      C1968   1.414       .  A
C1597      C1963   1.404   1_554  A
C1597      C1967   1.417       .  A
C1597      O1601   1.371       .  S
C1598      C1603   1.404       .  A
O1599      H1615   0.992       .  S
O1601      H1612   0.992       .  S
C1603      C1604   1.399       .  A
C1603      O1608   1.372       .  S
C1604      C1605   1.410       .  A
C1604      H1609   1.083       .  S
C1606      C1607   1.397       .  A
C1606      O1610   1.372       .  S
C1607      H1611   1.084       .  S
O1608      H1613   0.992       .  S
O1610      H1614   0.992       .  S
C1616      C1617   1.406       .  A
C1616      C1621   1.405       .  A
C1616      H1626   1.083       .  S
C1617      C1622   1.484       .  S
C1618      C1619   1.395       .  A
C1618      O1623   1.372       .  S
C1619      H1624   1.084       .  S
C1620      C1621   1.411       .  A
C1621      O1625   1.371       .  S
C1622      C1631   1.405       .  A
O1623      H1639   0.992       .  S
O1625      H1636   0.992       .  S
C1627      O1632   1.372       .  S
C1628      C1629   1.407       .  A
C1629      C1630   1.410       .  A
C1630      C1631   1.400       .  A
C1630      O1634   1.371       .  S
C1631      H1635   1.084       .  S
O1632      H1637   0.992       .  S
O1634      H1638   0.991       .  S
C1640      C1641   1.404       .  A
C1640      C1645   1.403       .  A
C1640      H1650   1.084       .  S
C1641      C1646   1.490       .  S
C1642      C1643   1.404       .  A
C1642      O1647   1.371       .  S
C1643      H1648   1.084       .  S
C1644      C1645   1.412       .  A
C1645      O1649   1.372       .  S
C1646      C1651   1.408       .  A
O1647      H1663   0.992       .  S
O1649      H1660   0.992       .  S
C1651      C1652   1.402       .  A
C1651      O1656   1.372       .  S
C1652      C1653   1.410       .  A
C1652      H1657   1.084       .  S
C1654      C1655   1.402       .  A
C1654      O1658   1.371       .  S
C1655      H1659   1.084       .  S
O1656      H1661   0.992       .  S
O1658      H1662   0.992       .  S
C1664      C1665   1.403       .  A
C1664      C1669   1.401       .  A
C1664      H2416   1.084       .  S
C1665      C1670   1.486       .  S
C1665      C1666   1.408       .  A
C1666      C1667   1.399       .  A
C1666      O1671   1.372       .  S
C1667      C1668   1.409       .  A
C1667      H1672   1.083       .  S
C1668      C1669   1.415       .  A
C1669      O2415   1.370       .  S
C1670      C1675   1.410       .  A
C1670      C1679   1.403       .  A
O1671      H1687   0.991       .  S
O1673      C2411   1.370       .  S
O1673      H1684   0.992       .  S
H1674      C2406   1.084       .  S
C1675      C2047   1.402       .  A
C1675      O2051   1.371       .  S
C1676      C2046   1.402   1_554  A
C1676      C2048   1.406       .  A
C1676      H1681   1.083       .  S
C1677      C1874   1.483       .  S
C1677      C2047   1.405       .  A
C1677      C1678   1.412       .  A
C1678      C1679   1.399       .  A
C1678      O2424   1.372       .  S
C1679      H2425   1.084       .  S
O1680      C2046   1.371   1_554  S
O1680      H1685   0.992       .  S
O1682      C2420   1.372       .  S
O1682      H1686   0.992       .  S
H1683      C2421   1.084       .  S
C1688      C1689   1.400       .  A
C1688      C1693   1.394       .  A
C1688      H2440   1.084       .  S
C1689      C1694   1.482       .  S
C1689      C1690   1.409       .  A
C1690      C1691   1.404       .  A
C1690      O1695   1.371       .  S
C1691      C1692   1.405       .  A
C1691      H1696   1.083       .  S
C1692      C1693   1.414       .  A
C1693      O2439   1.373       .  S
C1694      C1699   1.408       .  A
C1694      C1703   1.403       .  A
O1695      H1711   0.992       .  S
O1697      C2435   1.373       .  S
O1697      H1708   0.992   1_565  S
H1698      C2430   1.084       .  S
C1699      C1700   1.398       .  A
C1699      O1704   1.373       .  S
C1700      C2072   1.405       .  A
C1700      H1705   1.084       .  S
C1701      C2071   1.405   1_554  A
C1701      C1702   1.413       .  A
C1702      C2074   1.402       .  A
C1702      O2448   1.371       .  S
C1703      C2073   1.402       .  A
C1703      H2820   1.084       .  S
O1704      H1709   0.992       .  S
O1706      C2444   1.372   1_545  S
O1706      H1710   0.992       .  S
H1707      C2816   1.084   1_544  S
C1712      C1713   1.400       .  A
C1712      C1717   1.399       .  A
C1712      H1722   1.084       .  S
C1713      C1718   1.481       .  S
C1713      C1714   1.407       .  A
C1714      C1715   1.403       .  A
C1714      O1719   1.371       .  S
C1715      C1716   1.408       .  A
C1715      H1720   1.083       .  S
C1716      C1717   1.414       .  A
C1717      O1721   1.372       .  S
C1718      C1723   1.405       .  A
C1718      C1727   1.401       .  A
O1719      H1735   0.992       .  S
O1721      H1732   0.992       .  S
C1723      C1724   1.400       .  A
C1723      O2470   1.372       .  S
C1724      C1725   1.409       .  A
C1724      H2471   1.084       .  S
C1725      C1726   1.416       .  A
C1726      C1727   1.403       .  A
C1726      O1730   1.371       .  S
C1727      H1731   1.084       .  S
O1728      C2465   1.373       .  S
O1728      H1733   0.992       .  S
H1729      C2466   1.084       .  S
O1730      H1734   0.991       .  S
C1736      C1737   1.404       .  A
C1736      C1741   1.402       .  A
C1736      H1746   1.083       .  S
C1737      C1742   1.488       .  S
C1737      C1738   1.410       .  A
C1738      C1739   1.397       .  A
C1738      O2485   1.372       .  S
C1739      C1740   1.405       .  A
C1739      H1744   1.083       .  S
C1740      C1741   1.414       .  A
C1741      O1745   1.372       .  S
C1742      C1747   1.411       .  A
C1742      C1751   1.402       .  A
O1743      C2480   1.372       .  S
O1743      H1759   0.992       .  S
O1745      H1756   0.992       .  S
C1747      C1748   1.404       .  A
C1747      O1752   1.371       .  S
C1748      C1749   1.405       .  A
C1748      H1753   1.083       .  S
C1749      C1750   1.413       .  A
C1750      C1751   1.395       .  A
C1750      O1754   1.372       .  S
C1751      H1755   1.084       .  S
O1752      H2499   0.992       .  S
O1754      H1758   0.991       .  S
H1757      O2494   0.992       .  S
C1760      C1761   1.400       .  A
C1760      C1765   1.396       .  A
C1760      H1770   1.084       .  S
C1761      C1766   1.478       .  S
C1761      C1762   1.407       .  A
C1762      C1763   1.404       .  A
C1762      O1767   1.371       .  S
C1763      C1764   1.407       .  A
C1763      H1768   1.083       .  S
C1764      C1765   1.412       .  A
C1765      O1769   1.372       .  S
C1766      C1771   1.407       .  A
C1766      C1775   1.401       .  A
O1767      H2154   0.992       .  S
O1769      H1780   0.992       .  S
C1771      C1772   1.400       .  A
C1771      O1776   1.372       .  S
C1772      C2144   1.405       .  A
C1772      H1777   1.084       .  S
C1773      C2143   1.404   1_554  A
C1773      C2145   1.416       .  A
C1774      C2144   1.415       .  A
C1774      C1775   1.401       .  A
C1774      O2149   1.372       .  S
C1775      H1779   1.084       .  S
O1776      H1781   0.992       .  S
O1778      C2145   1.372       .  S
O1778      H1782   0.992       .  S
H1783      O2138   0.992       .  S
C1784      C1785   1.404       .  A
C1784      C1789   1.402       .  A
C1784      H1794   1.084       .  S
C1785      C1790   1.488       .  S
C1785      C1786   1.409       .  A
C1786      C1787   1.402       .  A
C1786      O1791   1.371       .  S
C1787      C1788   1.406       .  A
C1787      H2163   1.083       .  S
C1788      C1862   1.487       .  S
C1788      C1789   1.413       .  A
C1789      O1793   1.372       .  S
C1790      C1795   1.407       .  A
C1790      C1799   1.404       .  A
O1791      H1807   0.992       .  S
H1792      C2158   1.083       .  S
O1793      H2175   0.992       .  S
C1795      C1796   1.402       .  A
C1795      O1800   1.372       .  S
C1796      C1797   1.410       .  A
C1796      H1801   1.084       .  S
C1797      C1798   1.413       .  A
C1798      C1799   1.402       .  A
C1798      O1802   1.371       .  S
C1799      H1803   1.084       .  S
O1800      H1805   0.992       .  S
O1802      H1806   0.992       .  S
H1804      O2164   0.992       .  S
C1808      C1809   1.401       .  A
C1808      C1813   1.395       .  A
C1808      H1818   1.084       .  S
C1809      C1814   1.479       .  S
C1809      C1810   1.407       .  A
C1810      C1811   1.401       .  A
C1810      O1815   1.372       .  S
C1811      C1812   1.408       .  A
C1811      H1816   1.083       .  S
C1812      C1813   1.412       .  A
C1813      O1817   1.370       .  S
C1814      C1819   1.407       .  A
C1814      C1823   1.403       .  A
O1815      H1831   0.992       .  S
O1817      H1828   0.992       .  S
C1819      C1820   1.395       .  A
C1819      O1824   1.373       .  S
C1820      C1821   1.403       .  A
C1820      H1825   1.084       .  S
C1821      C1822   1.411       .  A
C1822      C1823   1.401       .  A
C1822      O1826   1.372       .  S
C1823      H1827   1.083       .  S
O1824      H1829   0.992       .  S
O1826      H1830   0.992       .  S
C1832      C1833   1.400       .  A
C1832      C1837   1.394       .  A
C1832      H1842   1.084       .  S
C1833      C1838   1.477       .  S
C1833      C1834   1.406       .  A
C1834      C1835   1.400       .  A
C1834      O1839   1.371       .  S
C1835      C1836   1.407       .  A
C1835      H1840   1.083       .  S
C1836      C1837   1.413       .  A
C1837      O1841   1.371       .  S
C1838      C1843   1.405       .  A
C1838      C1847   1.403       .  A
O1839      H1855   0.992       .  S
O1841      H1852   0.992       .  S
C1843      C1844   1.394       .  A
C1843      O1848   1.373       .  S
C1844      C1845   1.408       .  A
C1844      H1849   1.083       .  S
C1845      C1846   1.413       .  A
C1846      C1847   1.400       .  A
C1846      O1850   1.371       .  S
C1847      H1851   1.084       .  S
O1848      H1853   0.992       .  S
O1850      H1854   0.992       .  S
C1856      N1857   1.359       .  A
C1856      N1861   1.358       .  A
C1856      C2207   1.475       .  S
N1857      C1858   1.357       .  A
C1858      N1859   1.360       .  A
C1858      C1866   1.469       .  S
N1859      C1860   1.359       .  A
C1860      N1861   1.358       .  A
C1860      C2183   1.488       .  S
C1862      N1863   1.361       .  A
C1862      N1867   1.362       .  A
N1863      C1864   1.360       .  A
C1864      N1865   1.356       .  A
C1864      C2144   1.483       .  S
N1865      C1866   1.356       .  A
C1866      N1867   1.361       .  A
C1868      N1869   1.362       .  A
C1868      N1873   1.360       .  A
C1868      C2087   1.485       .  S
N1869      C1870   1.361       .  A
C1870      N1871   1.358       .  A
C1870      C1876   1.470       .  S
N1871      C1872   1.356       .  A
C1872      N1873   1.358       .  A
C1872      C2111   1.483       .  S
C1874      N1875   1.361       .  A
C1874      N1879   1.358       .  A
N1875      C1876   1.361       .  A
C1876      N1877   1.359       .  A
N1877      C1878   1.356       .  A
C1878      N1879   1.357       .  A
C1878      C2072   1.482       .  S
C1880      N1881   1.364       .  A
C1880      N1885   1.358       .  A
C1880      C2015   1.495       .  S
N1881      C1882   1.364       .  A
C1882      N1883   1.357       .  A
C1882      C1888   1.471       .  S
N1883      C1884   1.354       .  A
C1884      N1885   1.356       .  A
C1884      C2000   1.478       .  S
C1886      N1887   1.360       .  A
C1886      N1891   1.359       .  A
N1887      C1888   1.359       .  A
C1888      N1889   1.361       .  A
N1889      C1890   1.358       .  A
C1890      N1891   1.357       .  A
C1890      C1943   1.487       .  S
O1892     Mn1918   2.091       .  S
C1893      C2216   1.484       .  S
C1893      O1926   1.270       .  A
C1893      O1923   1.272       .  A
O1894     Mn1901   2.164       .  S
O1894     Mn1912   2.125       .  S
O1894     Mn1916   2.168       .  S
O1895     Mn1929   2.110       .  S
O1895      C1905   1.275       .  A
O1896     Mn1912   2.097       .  S
O1896      C1919   1.272       .  A
O1897     Mn1916   2.104       .  S
O1897      C1924   1.253       .  A
O1898     Mn2671   1.958       .  S
O1898     Mn1918   1.964       .  S
O1898      C1914   1.216       .  S
C1899      C1952   1.489       .  S
C1899      O1902   1.256       .  A
C1899      O1925   1.217       .  S
O1900     Mn2662   2.122       .  S
O1900     Mn1901   2.172       .  S
O1900     Mn1934   2.124       .  S
O1900     Mn1916   2.165       .  S
Mn1901     O2672   2.106       .  S
Mn1901     O1906   2.111       .  S
O1902     Mn2658   2.121   1_545  S
O1903     Mn1910   2.087       .  S
O1903      C1905   1.271       .  A
C1904      C1991   1.479       .  S
C1904      O1930   1.251       .  A
C1904      O1917   1.218       .  S
C1905      C2168   1.494       .  S
O1906      C1931   1.254       .  A
O1907     Mn1910   2.119       .  S
O1907     Mn1929   2.119       .  S
O1908     Mn1912   1.960       .  S
O1908     Mn1934   1.955       .  S
O1908      C1931   1.217       .  S
C1909      C2039   1.491       .  S
C1909      O2677   1.273       .  A
C1909      O1911   1.272       .  A
Mn1910     O1923   2.096       .  S
O1911     Mn1934   2.087       .  S
Mn1912     O1928   2.095       .  S
Mn1912     O1922   1.959       .  S
O1913     Mn1918   2.104       .  S
C1914      C2063   1.480       .  S
C1914      O1932   1.252       .  A
C1915      C2024   1.493       .  S
C1915      O1928   1.273       .  A
Mn1916     O2644   2.106       .  S
O1917     Mn1920   1.958       .  S
Mn1918     O1936   1.954       .  S
C1919      C1976   1.489       .  S
Mn1920     O1927   2.091       .  S
Mn1920     O1935   2.098       .  S
Mn1920     O2642   2.122   1_545  S
Mn1920     O1925   1.961       .  S
C1921      C2096   1.490       .  S
C1921      O2669   1.270       .  A
C1921      O1937   1.273       .  A
O1922     Mn1934   1.965       .  S
O1922      C1924   1.219       .  S
C1924      C2135   1.480       .  S
O1926     Mn1929   2.078       .  S
O1927      C2663   1.272   1_545  A
Mn1929     O2640   1.947   1_545  S
Mn1929     O2678   1.962   1_545  S
O1930     Mn2643   2.098   1_545  S
C1931      C2192   1.483       .  S
O1933      C1938   1.255       .  A
Mn1934     O1937   2.104       .  S
O1935      C2651   1.273   1_545  A
O1936     Mn2671   1.955       .  S
O1936      C1938   1.215       .  S
C1938      C2120   1.484       .  S
C1939      C1940   1.405   1_654  A
C1939      H1949   1.083       .  S
C1940      C1945   1.493       .  S
C1940      C1941   1.412       .  A
C1941      C1942   1.401       .  A
C1943      C1944   1.412       .  A
C1944      O1948   1.371       .  S
C1945      C1950   1.412       .  A
C1945      C1954   1.403   1_455  A
O1946      H1962   0.992       .  S
O1948      H1959   0.992       .  S
C1950      C1951   1.408       .  A
C1950      O1955   1.372       .  S
C1951      C1952   1.406   1_455  A
C1951      H1956   1.083       .  S
C1952      C1953   1.414       .  A
C1953      C1954   1.397       .  A
C1953      O1957   1.373       .  S
C1954      H1958   1.083       .  S
O1957      H1961   0.991       .  S
C1963      C1964   1.402       .  A
C1963      H1973   1.083   1_556  S
C1964      C1969   1.482       .  S
C1964      C1965   1.407       .  A
C1965      C1966   1.397       .  A
C1966      C1967   1.408   1_556  A
C1968      O1972   1.371       .  S
C1969      C1974   1.407       .  A
O1970      H1986   0.992       .  S
O1972      H1983   0.992       .  S
C1974      C1975   1.403       .  A
C1974      O1979   1.372       .  S
C1975      C1976   1.409       .  A
C1975      H1980   1.083       .  S
C1977      C1978   1.401       .  A
C1977      O1981   1.372       .  S
C1978      H1982   1.084       .  S
O1979      H1984   0.992       .  S
O1981      H1985   0.991       .  S
C1987      C1988   1.405       .  A
C1987      C1992   1.403       .  A
C1987      H1997   1.083       .  S
C1988      C1993   1.482       .  S
C1989      C1990   1.392       .  A
C1989      O1994   1.372       .  S
C1990      H1995   1.084       .  S
C1991      C1992   1.411       .  A
C1992      O1996   1.371       .  S
C1993      C2002   1.404       .  A
O1994      H2010   0.992       .  S
O1996      H2007   0.992       .  S
C1998      O2003   1.372       .  S
C1999      C2000   1.406       .  A
C2000      C2001   1.409       .  A
C2001      C2002   1.396       .  A
C2001      O2005   1.372       .  S
C2002      H2006   1.084       .  S
O2003      H2008   0.992       .  S
O2005      H2009   0.992       .  S
C2011      C2012   1.398       .  A
C2011      C2016   1.398       .  A
C2011      H2021   1.084       .  S
C2012      C2017   1.480       .  S
C2013      C2014   1.405       .  A
C2013      O2018   1.371       .  S
C2014      H2019   1.083       .  S
C2015      C2016   1.419       .  A
C2016      O2020   1.372       .  S
C2017      C2022   1.405       .  A
O2018      H2034   0.992       .  S
O2020      H2031   0.992   1_655  S
C2022      C2023   1.403       .  A
C2022      O2027   1.372       .  S
C2023      C2024   1.411       .  A
C2023      H2028   1.084       .  S
C2025      C2026   1.403       .  A
C2025      O2029   1.371       .  S
C2026      H2030   1.084       .  S
O2027      H2032   0.992       .  S
O2029      H2033   0.992       .  S
C2035      C2036   1.403       .  A
C2035      C2040   1.401       .  A
C2035      H2787   1.084       .  S
C2036      C2041   1.485       .  S
C2036      C2037   1.407       .  A
C2037      C2038   1.398       .  A
C2037      O2042   1.372       .  S
C2038      C2039   1.409       .  A
C2038      H2043   1.083       .  S
C2039      C2040   1.415       .  A
C2040      O2786   1.370       .  S
C2041      C2046   1.409       .  A
C2041      C2050   1.402       .  A
O2042      H2058   0.992       .  S
O2044      C2782   1.370       .  S
O2044      H2055   0.992       .  S
H2045      C2777   1.084       .  S
C2047      H2052   1.083       .  S
C2048      C2049   1.413   1_554  A
C2049      C2050   1.398       .  A
C2049      O2795   1.372       .  S
C2050      H2796   1.084       .  S
O2051      H2056   0.991       .  S
O2053      C2791   1.372       .  S
O2053      H2057   0.992       .  S
H2054      C2792   1.084       .  S
C2059      C2060   1.400       .  A
C2059      C2064   1.394       .  A
C2059      H2811   1.084       .  S
C2060      C2065   1.481       .  S
C2060      C2061   1.409       .  A
C2061      C2062   1.404       .  A
C2061      O2066   1.371       .  S
C2062      C2063   1.406       .  A
C2062      H2067   1.083       .  S
C2063      C2064   1.413       .  A
C2064      O2810   1.373       .  S
C2065      C2070   1.408       .  A
C2065      C2074   1.402   1_556  A
O2066      H2082   0.992       .  S
O2068      C2806   1.373       .  S
O2068      H2079   0.992   1_565  S
H2069      C2801   1.084       .  S
C2070      C2071   1.398       .  A
C2070      O2075   1.373       .  S
C2071      H2076   1.083       .  S
C2072      C2073   1.413       .  A
C2073      O2819   1.372       .  S
C2074      H2449   1.084       .  S
O2075      H2080   0.992       .  S
O2077      C2815   1.371   1_545  S
O2077      H2081   0.992       .  S
H2078      C2445   1.083       .  S
C2083      C2084   1.402       .  A
C2083      C2088   1.400       .  A
C2083      H2093   1.084       .  S
C2084      C2089   1.482       .  S
C2084      C2085   1.407       .  A
C2085      C2086   1.402       .  A
C2085      O2090   1.371       .  S
C2086      C2087   1.407       .  A
C2086      H2091   1.083       .  S
C2087      C2088   1.412       .  A
C2088      O2092   1.372       .  S
C2089      C2094   1.405       .  A
C2089      C2098   1.403       .  A
O2090      H2106   0.992       .  S
O2092      H2103   0.992       .  S
C2094      C2095   1.399       .  A
C2094      O2841   1.372       .  S
C2095      C2096   1.410       .  A
C2095      H2842   1.084       .  S
C2096      C2097   1.414       .  A
C2097      C2098   1.403       .  A
C2097      O2101   1.371       .  S
C2098      H2102   1.084       .  S
O2099      C2836   1.372       .  S
O2099      H2104   0.992       .  S
H2100      C2837   1.084       .  S
O2101      H2105   0.992       .  S
C2107      C2108   1.402       .  A
C2107      C2112   1.401       .  A
C2107      H2117   1.084       .  S
C2108      C2113   1.484       .  S
C2108      C2109   1.410       .  A
C2109      C2110   1.399       .  A
C2109      O2856   1.372       .  S
C2110      C2111   1.404       .  A
C2110      H2115   1.084       .  S
C2111      C2112   1.413       .  A
C2112      O2116   1.372       .  S
C2113      C2118   1.410       .  A
C2113      C2122   1.400       .  A
O2114      C2851   1.372       .  S
O2114      H2130   0.991       .  S
O2116      H2127   0.992       .  S
C2118      C2119   1.405       .  A
C2118      O2123   1.371       .  S
C2119      C2120   1.406       .  A
C2119      H2124   1.083       .  S
C2120      C2121   1.415       .  A
C2121      C2122   1.395       .  A
C2121      O2125   1.373       .  S
C2122      H2126   1.084       .  S
O2123      H2870   0.992       .  S
O2125      H2129   0.990       .  S
H2128      O2865   0.991       .  S
C2131      C2132   1.399       .  A
C2131      C2136   1.394       .  A
C2131      H2141   1.084       .  S
C2132      C2137   1.478       .  S
C2132      C2133   1.408       .  A
C2133      C2134   1.404       .  A
C2133      O2138   1.371       .  S
C2134      C2135   1.406       .  A
C2134      H2139   1.083       .  S
C2135      C2136   1.412       .  A
C2136      O2140   1.372       .  S
C2137      C2142   1.407       .  A
C2137      C2146   1.400   1_556  A
O2140      H2151   0.992       .  S
C2142      C2143   1.398       .  A
C2142      O2147   1.372       .  S
C2143      H2148   1.083       .  S
C2145      C2146   1.401       .  A
C2146      H2150   1.084       .  S
O2147      H2152   0.991       .  S
O2149      H2153   0.992       .  S
C2155      C2156   1.403       .  A
C2155      C2160   1.401       .  A
C2155      H2165   1.084       .  S
C2156      C2161   1.488       .  S
C2156      C2157   1.409       .  A
C2157      C2158   1.403   1_556  A
C2157      O2162   1.371   1_556  S
C2158      C2159   1.407       .  A
C2159      C2160   1.413   1_554  A
C2160      O2164   1.372       .  S
C2161      C2166   1.407       .  A
C2161      C2170   1.404       .  A
O2162      H2178   0.992       .  S
C2166      C2167   1.400       .  A
C2166      O2171   1.372       .  S
C2167      C2168   1.410       .  A
C2167      H2172   1.084       .  S
C2168      C2169   1.414       .  A
C2169      C2170   1.403       .  A
C2169      O2173   1.370       .  S
C2170      H2174   1.084       .  S
O2171      H2176   0.992       .  S
O2173      H2177   0.992       .  S
C2179      C2180   1.403       .  A
C2179      C2184   1.399       .  A
C2179      H2189   1.083       .  S
C2180      C2185   1.486       .  S
C2180      C2181   1.408       .  A
C2181      C2182   1.401       .  A
C2181      O2186   1.371       .  S
C2182      C2183   1.408       .  A
C2182      H2187   1.083       .  S
C2183      C2184   1.413       .  A
C2184      O2188   1.371       .  S
C2185      C2190   1.407       .  A
C2185      C2194   1.406       .  A
O2186      H2202   0.992       .  S
O2188      H2199   0.992       .  S
C2190      C2191   1.398       .  A
C2190      O2195   1.373       .  S
C2191      C2192   1.407       .  A
C2191      H2196   1.084       .  S
C2192      C2193   1.409       .  A
C2193      C2194   1.404       .  A
C2193      O2197   1.371       .  S
C2194      H2198   1.083       .  S
O2195      H2200   0.992       .  S
O2197      H2201   0.992       .  S
C2203      C2204   1.403       .  A
C2203      C2208   1.399       .  A
C2203      H2213   1.083       .  S
C2204      C2209   1.480       .  S
C2204      C2205   1.408       .  A
C2205      C2206   1.398       .  A
C2205      O2210   1.371       .  S
C2206      C2207   1.404       .  A
C2206      H2211   1.084       .  S
C2207      C2208   1.409       .  A
C2208      O2212   1.372       .  S
C2209      C2214   1.405       .  A
C2209      C2218   1.404       .  A
O2210      H2226   0.991       .  S
O2212      H2223   0.992       .  S
C2214      C2215   1.398       .  A
C2214      O2219   1.373       .  S
C2215      C2216   1.409       .  A
C2215      H2220   1.083       .  S
C2216      C2217   1.412       .  A
C2217      C2218   1.399       .  A
C2217      O2221   1.372       .  S
C2218      H2222   1.084       .  S
O2219      H2224   0.992       .  S
O2221      H2225   0.992       .  S
C2227      N2228   1.361       .  A
C2227      N2232   1.357       .  A
C2227      C2578   1.484       .  S
N2228      C2229   1.361       .  A
C2229      N2230   1.361       .  A
C2229      C2237   1.470       .  S
N2230      C2231   1.357       .  A
C2231      N2232   1.355       .  A
C2231      C2554   1.486       .  S
C2233      N2234   1.361       .  A
C2233      N2238   1.363       .  A
C2233      C2901   1.485       .  S
N2234      C2235   1.359       .  A
C2235      N2236   1.355       .  A
C2235      C2515   1.484       .  S
N2236      C2237   1.357       .  A
C2237      N2238   1.362       .  A
C2239      N2240   1.361       .  A
C2239      N2244   1.359       .  A
C2239      C2458   1.483       .  S
N2240      C2241   1.360       .  A
C2241      N2242   1.359       .  A
C2241      C2247   1.469       .  S
N2242      C2243   1.357       .  A
C2243      N2244   1.358       .  A
C2243      C2482   1.489       .  S
C2245      N2246   1.362       .  A
C2245      N2250   1.358       .  A
C2245      C2790   1.484       .  S
N2246      C2247   1.361       .  A
C2247      N2248   1.357       .  A
N2248      C2249   1.355       .  A
C2249      N2250   1.356       .  A
C2249      C2443   1.479       .  S
C2251      N2252   1.362       .  A
C2251      N2256   1.360       .  A
C2251      C2386   1.487       .  S
N2252      C2253   1.361       .  A
C2253      N2254   1.356       .  A
C2253      C2259   1.469       .  S
N2254      C2255   1.355       .  A
C2255      N2256   1.358       .  A
C2255      C2371   1.480       .  S
C2257      N2258   1.360       .  A
C2257      N2262   1.360       .  A
C2257      C2709   1.487       .  S
N2258      C2259   1.359       .  A
C2259      N2260   1.360       .  A
N2260      C2261   1.357       .  A
C2261      N2262   1.358       .  A
C2261      C2314   1.485       .  S
O2263     Mn2289   2.091       .  S
C2264      C2587   1.488       .  S
C2264      O2297   1.271       .  A
C2264      O2294   1.272       .  A
O2265     Mn2272   2.166       .  S
O2265     Mn2283   2.125       .  S
O2265     Mn2287   2.173       .  S
O2266     Mn2300   2.107       .  S
O2266      C2276   1.274       .  A
O2267     Mn2283   2.094       .  S
O2267      C2290   1.272       .  A
O2268     Mn2287   2.108       .  S
O2268      C2295   1.254       .  A
O2269     Mn2289   1.965       .  S
O2269      C2285   1.216       .  S
C2270      C2323   1.484       .  S
C2270      O2273   1.254       .  A
C2270      O2296   1.217       .  S
O2271     Mn2272   2.172       .  S
O2271     Mn2305   2.125       .  S
O2271     Mn2287   2.168       .  S
Mn2272     O2277   2.095       .  S
O2274     Mn2281   2.093       .  S
O2274      C2276   1.272       .  A
C2275      C2362   1.481       .  S
C2275      O2301   1.252       .  A
C2275      O2288   1.217       .  S
C2276      C2539   1.496       .  S
O2277      C2302   1.252       .  A
O2278     Mn2281   2.119       .  S
O2278     Mn2300   2.120       .  S
O2279     Mn2283   1.962       .  S
O2279     Mn2305   1.960       .  S
O2279      C2302   1.221       .  S
C2280      C2410   1.492       .  S
C2280      O2282   1.272       .  A
Mn2281     O2294   2.093       .  S
O2282     Mn2305   2.092       .  S
Mn2283     O2299   2.080       .  S
Mn2283     O2293   1.954       .  S
O2284     Mn2289   2.113       .  S
C2285      C2434   1.483       .  S
C2285      O2303   1.254       .  A
C2286      C2395   1.493       .  S
C2286      O2299   1.270       .  A
O2288     Mn2291   1.954       .  S
Mn2289     O2307   1.960       .  S
C2290      C2347   1.491       .  S
Mn2291     O2298   2.091       .  S
Mn2291     O2306   2.096       .  S
Mn2291     O2296   1.959       .  S
C2292      C2467   1.492       .  S
C2292      O2308   1.273       .  A
O2293     Mn2305   1.965       .  S
O2293      C2295   1.219       .  S
C2295      C2506   1.482       .  S
O2297     Mn2300   2.085       .  S
C2302      C2563   1.479       .  S
O2304      C2309   1.254       .  A
Mn2305     O2308   2.103       .  S
O2307      C2309   1.218       .  S
C2309      C2491   1.485       .  S
C2310      C2311   1.404       .  A
C2310      C2686   1.402       .  A
C2310      H2320   1.083       .  S
C2311      C2316   1.487       .  S
C2311      C2312   1.411   1_655  A
C2312      C2313   1.398       .  A
C2313      C2685   1.405   1_455  A
C2314      C2684   1.405   1_654  A
C2314      C2315   1.413       .  A
C2315      C2681   1.403       .  A
C2315      O2319   1.372       .  S
C2316      C2321   1.410   1_655  A
C2316      C2325   1.402       .  A
O2317      H2333   0.992       .  S
O2319      H2330   0.992       .  S
C2321      C2322   1.406   1_455  A
C2321      O2326   1.372       .  S
C2322      C2323   1.406       .  A
C2322      H2327   1.083   1_655  S
C2323      C2324   1.414       .  A
C2324      C2325   1.395       .  A
C2324      O2328   1.373       .  S
C2325      H2329   1.084       .  S
O2326      H2702   0.992   1_455  S
O2328      H2332   0.991       .  S
H2331      O2697   0.992   1_654  S
C2334      C2335   1.401       .  A
C2334      C2710   1.403       .  A
C2334      H2344   1.084       .  S
C2335      C2340   1.476       .  S
C2335      C2336   1.403       .  A
C2336      C2337   1.398       .  A
C2337      C2338   1.409       .  A
C2338      C2628   1.488       .  S
C2338      C2710   1.415       .  A
C2339      C2705   1.403   1_554  A
C2339      C2709   1.414       .  A
C2339      O2343   1.371       .  S
C2340      C2345   1.404       .  A
O2341      H2357   0.992       .  S
O2343      H2354   0.992       .  S
C2345      C2346   1.399       .  A
C2345      O2350   1.372       .  S
C2346      C2347   1.410       .  A
C2346      H2351   1.083       .  S
C2348      C2349   1.402       .  A
C2348      O2352   1.372       .  S
C2349      H2353   1.084       .  S
O2350      H2355   0.991       .  S
O2352      H2356   0.990       .  S
C2358      C2359   1.406       .  A
C2358      C2363   1.404       .  A
C2358      H2368   1.083       .  S
C2359      C2364   1.483       .  S
C2360      C2361   1.394       .  A
C2360      O2365   1.372       .  S
C2361      H2366   1.084       .  S
C2362      C2363   1.411       .  A
C2363      O2367   1.371       .  S
C2364      C2373   1.405       .  A
O2365      H2381   0.992       .  S
O2367      H2378   0.992       .  S
C2369      O2374   1.372       .  S
C2370      C2371   1.406       .  A
C2371      C2372   1.409       .  A
C2372      C2373   1.399       .  A
C2372      O2376   1.371       .  S
C2373      H2377   1.084       .  S
O2374      H2379   0.992       .  S
O2376      H2380   0.992       .  S
C2382      C2383   1.402       .  A
C2382      C2387   1.401       .  A
C2382      H2392   1.084       .  S
C2383      C2388   1.484       .  S
C2384      C2385   1.404       .  A
C2384      O2389   1.371       .  S
C2385      H2390   1.083       .  S
C2386      C2387   1.413       .  A
C2387      O2391   1.372       .  S
C2388      C2393   1.405       .  A
O2389      H2405   0.992       .  S
O2391      H2402   0.992       .  S
C2393      C2394   1.400       .  A
C2393      O2398   1.372       .  S
C2394      C2395   1.411       .  A
C2394      H2399   1.083       .  S
C2396      C2397   1.403       .  A
C2396      O2400   1.371       .  S
C2397      H2401   1.084       .  S
O2398      H2403   0.992       .  S
O2400      H2404   0.992       .  S
C2406      C2407   1.402   1_545  A
C2406      C2411   1.401       .  A
C2407      C2412   1.484       .  S
C2407      C2408   1.407       .  A
C2408      C2409   1.399       .  A
C2408      O2413   1.372       .  S
C2409      C2410   1.408       .  A
C2409      H2414   1.083       .  S
C2410      C2411   1.415   1_565  A
C2412      C2417   1.408       .  A
C2412      C2421   1.402       .  A
O2413      H2429   0.992       .  S
O2415      H2426   0.992       .  S
C2417      C2789   1.403       .  A
C2417      O2793   1.371   1_565  S
C2418      C2788   1.402   1_554  A
C2418      C2790   1.406       .  A
C2418      H2423   1.083   1_565  S
C2419      C2616   1.488       .  S
C2419      C2789   1.408       .  A
C2419      C2420   1.414       .  A
C2420      C2421   1.398       .  A
O2422      C2788   1.371   1_544  S
O2422      H2427   0.992   1_545  S
O2424      H2428   0.992       .  S
C2430      C2431   1.400       .  A
C2430      C2435   1.395       .  A
C2431      C2436   1.484       .  S
C2431      C2432   1.410       .  A
C2432      C2433   1.406       .  A
C2432      O2437   1.371       .  S
C2433      C2434   1.406       .  A
C2433      H2438   1.083       .  S
C2434      C2435   1.414       .  A
C2436      C2441   1.409       .  A
C2436      C2445   1.403       .  A
O2437      H2453   0.992       .  S
O2439      H2450   0.991       .  S
C2441      C2442   1.399       .  A
C2441      O2446   1.373       .  S
C2442      C2814   1.405       .  A
C2442      H2447   1.083       .  S
C2443      C2813   1.404   1_554  A
C2443      C2444   1.412       .  A
C2444      C2816   1.400   1_554  A
C2445      C2815   1.403       .  A
O2446      H2451   0.992       .  S
O2448      H2452   0.992       .  S
C2454      C2455   1.404   1_545  A
C2454      C2459   1.399       .  A
C2454      H2464   1.083       .  S
C2455      C2460   1.487       .  S
C2455      C2456   1.409       .  A
C2456      C2457   1.403       .  A
C2456      O2461   1.371       .  S
C2457      C2458   1.406       .  A
C2457      H2462   1.083       .  S
C2458      C2459   1.411   1_565  A
C2459      O2463   1.372       .  S
C2460      C2465   1.407   1_565  A
C2460      C2469   1.404       .  A
O2461      H2477   0.991       .  S
O2463      H2474   0.992       .  S
C2465      C2466   1.399       .  A
C2466      C2467   1.409   1_545  A
C2467      C2468   1.414       .  A
C2468      C2469   1.404       .  A
C2468      O2472   1.371       .  S
C2469      H2473   1.084       .  S
O2470      H2475   0.992       .  S
O2472      H2476   0.992       .  S
C2478      C2479   1.404       .  A
C2478      C2483   1.404       .  A
C2478      H2488   1.083       .  S
C2479      C2484   1.490       .  S
C2479      C2480   1.410   1_565  A
C2480      C2481   1.398       .  A
C2481      C2482   1.405   1_545  A
C2481      H2486   1.083       .  S
C2482      C2483   1.415       .  A
C2483      O2487   1.372       .  S
C2484      C2489   1.411       .  A
C2484      C2493   1.403       .  A
O2485      H2501   0.992       .  S
O2487      H2498   0.991       .  S
C2489      C2490   1.406       .  A
C2489      O2494   1.371   1_565  S
C2490      C2491   1.406       .  A
C2490      H2495   1.083       .  S
C2491      C2492   1.412       .  A
C2492      C2493   1.396       .  A
C2492      O2496   1.372       .  S
C2493      H2497   1.084       .  S
O2496      H2500   0.991       .  S
C2502      C2503   1.400       .  A
C2502      C2507   1.395       .  A
C2502      H2512   1.084       .  S
C2503      C2508   1.481       .  S
C2503      C2504   1.409       .  A
C2504      C2505   1.406       .  A
C2504      O2509   1.371       .  S
C2505      C2506   1.407       .  A
C2505      H2510   1.083       .  S
C2506      C2507   1.413       .  A
C2507      O2511   1.372       .  S
C2508      C2513   1.407       .  A
C2508      C2517   1.401       .  A
O2509      H2896   0.992       .  S
O2511      H2522   0.992       .  S
C2513      C2514   1.399       .  A
C2513      O2518   1.372       .  S
C2514      C2886   1.405       .  A
C2514      H2519   1.083       .  S
C2515      C2885   1.404   1_554  A
C2515      C2887   1.415       .  A
C2516      C2886   1.416       .  A
C2516      C2517   1.402       .  A
C2516      O2891   1.372       .  S
C2517      H2521   1.084       .  S
O2518      H2523   0.992       .  S
O2520      C2887   1.372       .  S
O2520      H2524   0.992       .  S
H2525      O2880   0.992       .  S
C2526      C2527   1.404       .  A
C2526      C2531   1.401       .  A
C2526      H2536   1.083       .  S
C2527      C2532   1.490       .  S
C2527      C2528   1.410       .  A
C2528      C2529   1.403       .  A
C2528      O2533   1.371       .  S
C2529      C2530   1.406       .  A
C2529      H2905   1.083       .  S
C2530      C2604   1.488       .  S
C2530      C2531   1.412       .  A
C2531      O2535   1.372       .  S
C2532      C2537   1.408       .  A
C2532      C2541   1.404       .  A
O2533      H2549   0.992       .  S
H2534      C2900   1.083       .  S
O2535      H2917   0.992       .  S
C2537      C2538   1.402       .  A
C2537      O2542   1.372       .  S
C2538      C2539   1.410       .  A
C2538      H2543   1.084       .  S
C2539      C2540   1.415       .  A
C2540      C2541   1.403       .  A
C2540      O2544   1.370       .  S
C2541      H2545   1.084       .  S
O2542      H2547   0.992       .  S
O2544      H2548   0.992       .  S
H2546      O2906   0.992       .  S
C2550      C2551   1.402       .  A
C2550      C2555   1.396       .  A
C2550      H2560   1.084       .  S
C2551      C2556   1.484       .  S
C2551      C2552   1.408       .  A
C2552      C2553   1.403       .  A
C2552      O2557   1.372       .  S
C2553      C2554   1.408       .  A
C2553      H2558   1.083       .  S
C2554      C2555   1.413       .  A
C2555      O2559   1.372       .  S
C2556      C2561   1.408       .  A
C2556      C2565   1.405       .  A
O2557      H2573   0.992       .  S
O2559      H2570   0.992       .  S
C2561      C2562   1.396       .  A
C2561      O2566   1.373       .  S
C2562      C2563   1.403       .  A
C2562      H2567   1.084       .  S
C2563      C2564   1.411       .  A
C2564      C2565   1.403       .  A
C2564      O2568   1.372       .  S
C2565      H2569   1.083       .  S
O2566      H2571   0.992       .  S
O2568      H2572   0.992       .  S
C2574      C2575   1.398       .  A
C2574      C2579   1.395       .  A
C2574      H2584   1.084       .  S
C2575      C2580   1.474       .  S
C2575      C2576   1.405       .  A
C2576      C2577   1.403       .  A
C2576      O2581   1.371       .  S
C2577      C2578   1.408       .  A
C2577      H2582   1.083       .  S
C2578      C2579   1.415       .  A
C2579      O2583   1.372       .  S
C2580      C2585   1.404       .  A
C2580      C2589   1.400       .  A
O2581      H2597   0.992       .  S
O2583      H2594   0.992       .  S
C2585      C2586   1.399       .  A
C2585      O2590   1.372       .  S
C2586      C2587   1.411       .  A
C2586      H2591   1.083       .  S
C2587      C2588   1.415       .  A
C2588      C2589   1.399       .  A
C2588      O2592   1.371       .  S
C2589      H2593   1.084       .  S
O2590      H2595   0.992       .  S
O2592      H2596   0.992       .  S
C2598      N2599   1.362       .  A
C2598      N2603   1.358       .  A
C2598      C2949   1.489       .  S
N2599      C2600   1.360       .  A
C2600      N2601   1.360       .  A
C2600      C2608   1.470       .  S
N2601      C2602   1.357       .  A
C2602      N2603   1.355       .  A
C2602      C2925   1.485       .  S
C2604      N2605   1.361       .  A
C2604      N2609   1.363       .  A
N2605      C2606   1.360       .  A
C2606      N2607   1.355       .  A
C2606      C2886   1.486       .  S
N2607      C2608   1.357       .  A
C2608      N2609   1.361       .  A
C2610      N2611   1.362       .  A
C2610      N2615   1.360       .  A
C2610      C2829   1.486       .  S
N2611      C2612   1.361       .  A
C2612      N2613   1.358       .  A
C2612      C2618   1.472       .  S
N2613      C2614   1.357       .  A
C2614      N2615   1.359       .  A
C2614      C2853   1.491       .  S
C2616      N2617   1.362       .  A
C2616      N2621   1.358       .  A
N2617      C2618   1.361       .  A
C2618      N2619   1.359       .  A
N2619      C2620   1.357       .  A
C2620      N2621   1.357       .  A
C2620      C2814   1.485       .  S
C2622      N2623   1.362       .  A
C2622      N2627   1.360       .  A
C2622      C2757   1.486       .  S
N2623      C2624   1.361       .  A
C2624      N2625   1.357       .  A
C2624      C2630   1.470       .  S
N2625      C2626   1.356       .  A
C2626      N2627   1.359       .  A
C2626      C2742   1.482       .  S
C2628      N2629   1.361       .  A
C2628      N2633   1.360       .  A
N2629      C2630   1.359       .  A
C2630      N2631   1.359       .  A
N2631      C2632   1.357       .  A
C2632      N2633   1.358       .  A
C2632      C2685   1.484       .  S
O2634     Mn2660   2.093       .  S
C2635      C2958   1.487       .  S
C2635      O2668   1.271       .  A
C2635      O2665   1.272       .  A
O2636     Mn2643   2.161       .  S
O2636     Mn2654   2.126       .  S
O2636     Mn2658   2.175       .  S
O2637     Mn2671   2.108       .  S
O2637      C2647   1.275       .  A
O2638     Mn2654   2.092       .  S
O2638      C2661   1.272       .  A
O2639     Mn2658   2.107       .  S
O2639      C2666   1.254       .  A
O2640     Mn2660   1.960       .  S
O2640      C2656   1.213       .  S
C2641      C2694   1.483       .  S
C2641      O2644   1.253       .  A
C2641      O2667   1.218       .  S
O2642     Mn2643   2.169       .  S
O2642     Mn2676   2.126       .  S
O2642     Mn2658   2.166       .  S
Mn2643     O2648   2.095       .  S
O2645     Mn2652   2.089       .  S
O2645      C2647   1.271       .  A
C2646      C2733   1.482       .  S
C2646      O2672   1.253       .  A
C2646      O2659   1.218       .  S
C2647      C2910   1.493       .  S
O2648      C2673   1.252       .  A
O2649     Mn2652   2.120       .  S
O2649     Mn2671   2.119       .  S
O2650     Mn2654   1.963       .  S
O2650     Mn2676   1.962       .  S
O2650      C2673   1.221       .  S
C2651      C2781   1.491       .  S
C2651      O2653   1.272       .  A
Mn2652     O2665   2.094       .  S
O2653     Mn2676   2.088       .  S
Mn2654     O2670   2.085       .  S
Mn2654     O2664   1.955       .  S
O2655     Mn2660   2.109       .  S
C2656      C2805   1.478       .  S
C2656      O2674   1.253       .  A
C2657      C2766   1.492       .  S
C2657      O2670   1.271       .  A
O2659     Mn2662   1.955       .  S
Mn2660     O2678   1.962       .  S
C2661      C2718   1.490       .  S
Mn2662     O2669   2.084       .  S
Mn2662     O2677   2.099       .  S
Mn2662     O2667   1.960       .  S
C2663      C2838   1.490       .  S
C2663      O2679   1.272       .  A
O2664     Mn2676   1.963       .  S
O2664      C2666   1.220       .  S
C2666      C2877   1.483       .  S
O2668     Mn2671   2.088       .  S
C2673      C2934   1.481       .  S
O2675      C2680   1.254       .  A
Mn2676     O2679   2.099       .  S
O2678      C2680   1.217       .  S
C2680      C2862   1.486       .  S
C2681      C2682   1.404   1_554  A
C2681      H2691   1.083       .  S
C2682      C2687   1.487       .  S
C2682      C2683   1.410   1_655  A
C2683      C2684   1.398       .  A
C2685      C2686   1.413       .  A
C2686      O2690   1.372       .  S
C2687      C2692   1.410   1_655  A
C2687      C2696   1.402       .  A
O2688      H2704   0.992       .  S
O2690      H2701   0.992       .  S
C2692      C2693   1.406   1_455  A
C2692      O2697   1.372       .  S
C2693      C2694   1.406       .  A
C2693      H2698   1.083   1_655  S
C2694      C2695   1.413       .  A
C2695      C2696   1.395       .  A
C2695      O2699   1.373       .  S
C2696      H2700   1.084       .  S
O2699      H2703   0.991       .  S
C2705      C2706   1.401       .  A
C2705      H2715   1.084   1_556  S
C2706      C2711   1.477       .  S
C2706      C2707   1.404       .  A
C2707      C2708   1.398       .  A
C2708      C2709   1.408   1_556  A
C2710      O2714   1.371       .  S
C2711      C2716   1.404       .  A
O2712      H2728   0.992       .  S
O2714      H2725   0.992       .  S
C2716      C2717   1.399       .  A
C2716      O2721   1.372       .  S
C2717      C2718   1.410       .  A
C2717      H2722   1.083       .  S
C2719      C2720   1.402       .  A
C2719      O2723   1.372       .  S
C2720      H2724   1.084       .  S
O2721      H2726   0.992       .  S
O2723      H2727   0.990       .  S
C2729      C2730   1.406       .  A
C2729      C2734   1.404       .  A
C2729      H2739   1.083       .  S
C2730      C2735   1.484       .  S
C2731      C2732   1.393       .  A
C2731      O2736   1.372       .  S
C2732      H2737   1.084       .  S
C2733      C2734   1.411       .  A
C2734      O2738   1.371       .  S
C2735      C2744   1.405       .  A
O2736      H2752   0.992       .  S
O2738      H2749   0.992       .  S
C2740      O2745   1.372       .  S
C2741      C2742   1.406       .  A
C2742      C2743   1.410       .  A
C2743      C2744   1.399       .  A
C2743      O2747   1.371       .  S
C2744      H2748   1.084       .  S
O2745      H2750   0.992       .  S
O2747      H2751   0.992       .  S
C2753      C2754   1.402       .  A
C2753      C2758   1.401       .  A
C2753      H2763   1.084       .  S
C2754      C2759   1.483       .  S
C2755      C2756   1.402       .  A
C2755      O2760   1.371       .  S
C2756      H2761   1.083       .  S
C2757      C2758   1.412       .  A
C2758      O2762   1.372       .  S
C2759      C2764   1.406       .  A
O2760      H2776   0.992       .  S
O2762      H2773   0.992       .  S
C2764      C2765   1.400       .  A
C2764      O2769   1.372       .  S
C2765      C2766   1.410       .  A
C2765      H2770   1.083       .  S
C2767      C2768   1.402       .  A
C2767      O2771   1.371       .  S
C2768      H2772   1.084       .  S
O2769      H2774   0.992       .  S
O2771      H2775   0.992       .  S
C2777      C2778   1.403   1_545  A
C2777      C2782   1.401       .  A
C2778      C2783   1.485       .  S
C2778      C2779   1.407       .  A
C2779      C2780   1.399       .  A
C2779      O2784   1.372       .  S
C2780      C2781   1.409       .  A
C2780      H2785   1.083       .  S
C2781      C2782   1.415   1_565  A
C2783      C2788   1.409       .  A
C2783      C2792   1.403       .  A
O2784      H2800   0.992       .  S
O2786      H2797   0.992       .  S
C2789      H2794   1.083   1_565  S
C2790      C2791   1.413   1_554  A
C2791      C2792   1.398       .  A
O2793      H2798   0.992   1_545  S
O2795      H2799   0.992       .  S
C2801      C2802   1.399       .  A
C2801      C2806   1.392       .  A
C2802      C2807   1.479       .  S
C2802      C2803   1.409       .  A
C2803      C2804   1.403       .  A
C2803      O2808   1.371       .  S
C2804      C2805   1.404       .  A
C2804      H2809   1.083       .  S
C2805      C2806   1.414       .  A
C2807      C2812   1.408       .  A
C2807      C2816   1.402       .  A
O2808      H2824   0.992       .  S
O2810      H2821   0.991       .  S
C2812      C2813   1.398       .  A
C2812      O2817   1.373       .  S
C2813      H2818   1.084       .  S
C2814      C2815   1.413       .  A
O2817      H2822   0.992       .  S
O2819      H2823   0.992       .  S
C2825      C2826   1.402   1_545  A
C2825      C2830   1.401       .  A
C2825      H2835   1.084       .  S
C2826      C2831   1.483       .  S
C2826      C2827   1.407       .  A
C2827      C2828   1.404       .  A
C2827      O2832   1.371       .  S
C2828      C2829   1.407       .  A
C2828      H2833   1.083       .  S
C2829      C2830   1.412   1_565  A
C2830      O2834   1.372       .  S
C2831      C2836   1.405   1_565  A
C2831      C2840   1.403       .  A
O2832      H2848   0.992       .  S
O2834      H2845   0.992       .  S
C2836      C2837   1.400       .  A
C2837      C2838   1.409   1_545  A
C2838      C2839   1.415       .  A
C2839      C2840   1.403       .  A
C2839      O2843   1.372       .  S
C2840      H2844   1.084       .  S
O2841      H2846   0.992       .  S
O2843      H2847   0.992       .  S
C2849      C2850   1.404       .  A
C2849      C2854   1.403       .  A
C2849      H2859   1.083       .  S
C2850      C2855   1.494       .  S
C2850      C2851   1.412   1_565  A
C2851      C2852   1.399       .  A
C2852      C2853   1.406   1_545  A
C2852      H2857   1.083       .  S
C2853      C2854   1.415       .  A
C2854      O2858   1.372       .  S
C2855      C2860   1.413       .  A
C2855      C2864   1.403       .  A
O2856      H2872   0.992       .  S
O2858      H2869   0.991       .  S
C2860      C2861   1.406       .  A
C2860      O2865   1.371   1_565  S
C2861      C2862   1.406       .  A
C2861      H2866   1.083       .  S
C2862      C2863   1.413       .  A
C2863      C2864   1.396       .  A
C2863      O2867   1.372       .  S
C2864      H2868   1.083       .  S
O2867      H2871   0.991       .  S
C2873      C2874   1.400       .  A
C2873      C2878   1.395       .  A
C2873      H2883   1.084       .  S
C2874      C2879   1.481       .  S
C2874      C2875   1.408       .  A
C2875      C2876   1.405       .  A
C2875      O2880   1.371       .  S
C2876      C2877   1.407       .  A
C2876      H2881   1.083       .  S
C2877      C2878   1.413       .  A
C2878      O2882   1.372       .  S
C2879      C2884   1.408       .  A
C2879      C2888   1.401   1_556  A
O2882      H2893   0.992       .  S
C2884      C2885   1.399       .  A
C2884      O2889   1.372       .  S
C2885      H2890   1.084       .  S
C2887      C2888   1.402       .  A
C2888      H2892   1.084       .  S
O2889      H2894   0.992       .  S
O2891      H2895   0.992       .  S
C2897      C2898   1.404       .  A
C2897      C2902   1.401       .  A
C2897      H2907   1.083       .  S
C2898      C2903   1.489       .  S
C2898      C2899   1.410       .  A
C2899      C2900   1.403   1_556  A
C2899      O2904   1.371   1_556  S
C2900      C2901   1.405       .  A
C2901      C2902   1.411   1_554  A
C2902      O2906   1.372       .  S
C2903      C2908   1.408       .  A
C2903      C2912   1.404       .  A
O2904      H2920   0.991       .  S
C2908      C2909   1.402       .  A
C2908      O2913   1.372       .  S
C2909      C2910   1.410       .  A
C2909      H2914   1.084       .  S
C2910      C2911   1.414       .  A
C2911      C2912   1.402       .  A
C2911      O2915   1.370       .  S
C2912      H2916   1.084       .  S
O2913      H2918   0.992       .  S
O2915      H2919   0.992       .  S
C2921      C2922   1.403       .  A
C2921      C2926   1.398       .  A
C2921      H2931   1.084       .  S
C2922      C2927   1.484       .  S
C2922      C2923   1.408       .  A
C2923      C2924   1.402       .  A
C2923      O2928   1.371       .  S
C2924      C2925   1.407       .  A
C2924      H2929   1.083       .  S
C2925      C2926   1.412       .  A
C2926      O2930   1.372       .  S
C2927      C2932   1.408       .  A
C2927      C2936   1.404       .  A
O2928      H2944   0.992       .  S
O2930      H2941   0.992       .  S
C2932      C2933   1.398       .  A
C2932      O2937   1.373       .  S
C2933      C2934   1.404       .  A
C2933      H2938   1.084       .  S
C2934      C2935   1.411       .  A
C2935      C2936   1.403       .  A
C2935      O2939   1.372       .  S
C2936      H2940   1.083       .  S
O2937      H2942   0.992       .  S
O2939      H2943   0.992       .  S
C2945      C2946   1.397       .  A
C2945      C2950   1.396       .  A
C2945      H2955   1.084       .  S
C2946      C2951   1.474       .  S
C2946      C2947   1.404       .  A
C2947      C2948   1.403       .  A
C2947      O2952   1.371       .  S
C2948      C2949   1.409       .  A
C2948      H2953   1.083       .  S
C2949      C2950   1.417       .  A
C2950      O2954   1.372       .  S
C2951      C2956   1.404       .  A
C2951      C2960   1.400       .  A
O2952      H2968   0.992       .  S
O2954      H2965   0.992       .  S
C2956      C2957   1.399       .  A
C2956      O2961   1.372       .  S
C2957      C2958   1.410       .  A
C2957      H2962   1.084       .  S
C2958      C2959   1.415       .  A
C2959      C2960   1.400       .  A
C2959      O2963   1.372       .  S
C2960      H2964   1.084       .  S
O2961      H2966   0.992       .  S
O2963      H2967   0.992       .  S
