geometry optimzed in LAMMPS
_audit_creation_date              2020-11-30 
_audit_creation_method            'lammps2cif' 
_symmetry_space_group_name_H-M    'P1' 
_symmetry_Int_Tables_number       1 
_symmetry_cell_setting            triclinic 
loop_ 
_symmetry_equiv_pos_as_xyz 
  x,y,z 
_cell_length_a                    39.25974857 
_cell_length_b                    39.25882053582888 
_cell_length_c                    22.990860611315373 
_cell_angle_alpha                 89.9954019472472 
_cell_angle_beta                  90.00512470256187 
_cell_angle_gamma                 119.99721944132342 
loop_ 
_atom_site_label 
_atom_site_type_symbol 
_atom_site_fract_x 
_atom_site_fract_y 
_atom_site_fract_z 
_atom_site_charge 
C1          C  0.07374230  0.07341382  0.12367890     0.04200
C2          C  0.10574629  0.06972920  0.14356728    -0.11900
C3          C  0.13591766  0.10015160  0.17581085     0.01700
C4          C  0.13598015  0.13564508  0.18122269    -0.10500
C5          C  0.10048980  0.13558745  0.17580154     0.04200
C6          C  0.07006746  0.10542410  0.14354874    -0.09900
H7          H  0.10646754  0.04284192  0.13610307     0.09800
H8          H  0.16169557  0.16135955  0.19769346     0.07300
H9          H  0.04318515  0.10615207  0.13607253     0.07200
C10         C  0.18750392  0.07605578  0.18543845     0.46600
H11         H  0.18750438  0.07606186  0.13709228    -0.02500
C12         C  0.18750390  0.07604250  0.29909837     0.46600
H13         H  0.18750191  0.07603503  0.34744629    -0.02500
C14         C  0.17125678  0.03499417  0.21206773    -0.16200
C15         C  0.22856197  0.10086141  0.21208500    -0.15900
C16         C  0.16269133  0.09229969  0.21207988    -0.14900
C17         C  0.17132860  0.03499044  0.27241223    -0.16300
C18         C  0.22856044  0.10092124  0.27243091    -0.15800
C19         C  0.16262560  0.09222491  0.27242424    -0.16200
C20         C  0.07638522  0.18716323  0.18543842     0.46600
H21         H  0.07637834  0.18716147  0.13709214    -0.02500
C22         C  0.07640008  0.18716517  0.29909831     0.46600
H23         H  0.07640817  0.18716765  0.34744627    -0.02500
C24         C  0.03533051  0.17091563  0.21208779    -0.16200
C25         C  0.09263719  0.16235279  0.21207560    -0.15900
C26         C  0.10120040  0.22822226  0.21206906    -0.16300
C27         C  0.03533960  0.17098368  0.27243292    -0.16300
C28         C  0.09257449  0.16228562  0.27242084    -0.15800
C29         C  0.10127531  0.22822008  0.27241347    -0.16200
C30         C  0.29860480  0.18980434  0.12369025     0.04200
C31         C  0.26292158  0.15779701  0.14356598    -0.11900
C32         C  0.26318066  0.12762994  0.17581578     0.01700
C33         C  0.29861210  0.12756877  0.18122904    -0.10500
C34         C  0.00070654  0.16306271  0.17582114     0.04200
C35         C  0.00095762  0.19348637  0.14357645    -0.09900
H36         H  0.23531289  0.15707238  0.13609241     0.09800
H37         H  0.29861463  0.10184967  0.19768446     0.07300
H38         H  0.02856436  0.22037291  0.13611010     0.07200
C39         C  0.19013264  0.29827636  0.12364526     0.04200
C40         C  0.19381197  0.00062887  0.14352424    -0.11900
C41         C  0.16339642  0.00037432  0.17578780     0.01700
C42         C  0.12790690  0.29827704  0.18121514    -0.10500
C43         C  0.12796575  0.26284445  0.17579167     0.04200
C44         C  0.15812938  0.26258986  0.14353230    -0.09900
H45         H  0.22069447  0.02823732  0.13604793     0.09800
H46         H  0.10219559  0.29827867  0.19770138     0.07300
H47         H  0.15740573  0.23498171  0.13606089     0.07200
C48         C  0.29861513  0.19058529  0.35870162     0.04200
C49         C  0.26291370  0.15859084  0.33967778    -0.11900
C50         C  0.26312934  0.12800443  0.30851370     0.01700
C51         C  0.29861881  0.12791309  0.30361764    -0.10500
C52         C  0.00077184  0.16349542  0.30851482     0.04200
C53         C  0.00098364  0.19429654  0.33967431    -0.09900
H54         H  0.23548159  0.15822791  0.34732248     0.09800
H55         H  0.29862095  0.10203629  0.28789776     0.07300
H56         H  0.02841383  0.22136770  0.34731633     0.07200
C57         C  0.19101564  0.29826672  0.35853534     0.04200
C58         C  0.19470656  0.00063642  0.33954995    -0.11900
C59         C  0.16387598  0.00042402  0.30846877     0.01700
C60         C  0.12829204  0.29827158  0.30360947    -0.10500
C61         C  0.12838966  0.26278324  0.30846855     0.04200
C62         C  0.15900761  0.26256608  0.33954482    -0.09900
H63         H  0.22177860  0.02807014  0.34717870     0.09800
H64         H  0.10240516  0.29827362  0.28792883     0.07300
H65         H  0.15864709  0.23513145  0.34716996     0.07200
C66         C  0.07291974  0.07257137  0.35859986     0.04200
C67         C  0.10491987  0.06886925  0.33959513    -0.11900
C68         C  0.13552644  0.09969057  0.30849052     0.01700
C69         C  0.13562321  0.13527591  0.30361591    -0.10500
C70         C  0.10004134  0.13518327  0.30848942     0.04200
C71         C  0.06922365  0.10457942  0.33960349    -0.09900
H72         H  0.10527962  0.04179538  0.34722486     0.09800
H73         H  0.16150515  0.16115767  0.28791809     0.07300
H74         H  0.04215335  0.10494426  0.34723946     0.07200
O75         O  0.01333979  0.01294390  0.37240762    -0.77400
C76         C  0.29861644  0.22079131  0.39583435     0.83600
O77         O  0.21693771  0.29828910  0.45058716    -0.78500
O78         O  0.24979101  0.21671895  0.57000247    -0.80000
O79         O  0.04687278  0.33103022  0.56994101    -0.79800
O80         O  0.04697746  0.04666528  0.45064073    -0.78400
Zn81       Zn  0.29863774  0.29824724  0.40393069     1.55700
O82         O  0.01412355  0.26554658  0.56998350    -0.79800
Cd83       Cd  0.01295530  0.01262124  0.51896296     1.59700
Cd84       Cd  0.25095243  0.29828383  0.51893708     1.59600
O85         O  0.33135821  0.04652551  0.56994751    -0.79800
O86         O  0.29862425  0.29827301  0.48888301    -1.90300
Cd87       Cd  0.29861799  0.25060401  0.51900775     1.59900
O88         O  0.26587756  0.01379406  0.56991240    -0.79800
O89         O  0.29860136  0.21652838  0.45072869    -0.78400
C90         C  0.22120753  0.29826518  0.39570046     0.84100
C91         C  0.04272461  0.04237347  0.39575122     0.83800
O92         O  0.29863772  0.25020360  0.37246336    -0.77400
C93         C  0.04318642  0.29828955  0.58604650     0.84600
O94         O  0.25060724  0.29824155  0.37237438    -0.77500
C95         C  0.29861689  0.04284718  0.58601549     0.84700
C96         C  0.22072402  0.22039648  0.58605044     0.85000
O97         O  0.21703201  0.24944463  0.56992410    -0.79900
O98         O  0.01335297  0.29825781  0.87245608    -0.77400
C99         C  0.22118563  0.22083614  0.89575215     0.83600
O100        O  0.29860328  0.04662741  0.95059589    -0.78500
O101        O  0.21703218  0.26553564  0.06994407    -0.80000
O102        O  0.33134499  0.24944045  0.06998519    -0.79800
O103        O  0.04702604  0.29828968  0.95071980    -0.78400
Zn104      Zn  0.29864444  0.29825703  0.90393119     1.55700
O105        O  0.26586295  0.21669124  0.06994809    -0.79800
Cd106      Cd  0.01295283  0.29827631  0.01900015     1.59700
Cd107      Cd  0.29860859  0.01261200  0.01894489     1.59600
O108        O  0.04684156  0.01377180  0.06999180    -0.79800
O109        O  0.29861804  0.29827205  0.98888371    -1.90300
Cd110      Cd  0.25093856  0.25060625  0.01896421     1.59900
O111        O  0.01411618  0.04653120  0.06992898    -0.79800
O112        O  0.21689580  0.21658228  0.95064164    -0.78400
C113        C  0.29862725  0.04235705  0.89570913     0.84100
C114        C  0.04276430  0.29827752  0.89582545     0.83800
O115        O  0.25061408  0.25022154  0.87240845    -0.77400
C116        C  0.29860337  0.22037907  0.08605424     0.84600
O117        O  0.29865074  0.01295659  0.87238231    -0.77500
C118        C  0.04316521  0.04283882  0.08604685     0.84700
C119        C  0.22071012  0.29827715  0.08601489     0.85000
O120        O  0.24976445  0.33101790  0.06991841    -0.79900
C121        C  0.29861646  0.07342307  0.62364996     0.04200
C122        C  0.26293143  0.06974316  0.64353040    -0.11900
C123        C  0.26318656  0.10016081  0.67579261     0.01700
C124        C  0.29861684  0.13565133  0.68121795    -0.10500
C125        C  0.00071496  0.13559187  0.67579435     0.04200
C126        C  0.00096875  0.10542683  0.64353685    -0.09900
H127        H  0.23532421  0.04286065  0.63605408     0.09800
H128        H  0.29861606  0.16136417  0.69770082     0.07300
H129        H  0.02857666  0.10615054  0.63606491     0.07200
C130        C  0.29862590  0.07254923  0.85854391     0.04200
C131        C  0.00099261  0.10455542  0.83954980    -0.11900
C132        C  0.00077667  0.13517328  0.80847034     0.01700
C133        C  0.29862259  0.13527219  0.80361055    -0.10500
C134        C  0.26313621  0.09968818  0.80847336     0.04200
C135        C  0.26292352  0.06885847  0.83955895    -0.09900
H136        H  0.02842578  0.10491443  0.84717466     0.09800
H137        H  0.29862133  0.16115933  0.78792774     0.07300
H138        H  0.23549063  0.04178712  0.84719003     0.07200
C139        C  0.18750726  0.07605768  0.68543712     0.46600
H140        H  0.18750253  0.07605790  0.63709087    -0.02500
C141        C  0.18751753  0.07605701  0.79909703     0.46600
H142        H  0.18752356  0.07605851  0.84744495    -0.02500
C143        C  0.17126250  0.10087018  0.71207802    -0.16200
C144        C  0.16270081  0.03499879  0.71208104    -0.15900
C145        C  0.22856723  0.09230361  0.71206955    -0.16300
C146        C  0.17133597  0.10093554  0.77242197    -0.16300
C147        C  0.16263816  0.03500018  0.77242735    -0.15800
C148        C  0.22856987  0.09223280  0.77241409    -0.16200
C149        C  0.07639562  0.18717202  0.68543713     0.46600
H150        H  0.07639645  0.18717714  0.63709018    -0.02500
C151        C  0.07639479  0.18716062  0.79909692     0.46600
H152        H  0.07639331  0.18715441  0.84744472    -0.02500
C153        C  0.03533745  0.16235803  0.71206949    -0.16200
C154        C  0.10120691  0.17092173  0.71207498    -0.15900
C155        C  0.09264429  0.22822840  0.71208378    -0.16300
C156        C  0.03534010  0.16228502  0.77241362    -0.16300
C157        C  0.10127397  0.17098536  0.77242053    -0.15800
C158        C  0.09257525  0.22822075  0.77242895    -0.16200
C159        C  0.07376350  0.29828896  0.62367663     0.04200
C160        C  0.10577082  0.00063956  0.64355214    -0.11900
C161        C  0.13593510  0.00038000  0.67580774     0.01700
C162        C  0.13599507  0.29828054  0.68122426    -0.10500
C163        C  0.10050137  0.26285264  0.67581353     0.04200
C164        C  0.07008065  0.26260199  0.64356359    -0.09900
H165        H  0.10649618  0.02825019  0.63607700     0.09800
H166        H  0.16171132  0.29827727  0.69768480     0.07300
H167        H  0.04319435  0.23499493  0.63609706     0.07200
C168        C  0.19014850  0.18982087  0.62368276     0.04200
C169        C  0.19383209  0.15781584  0.64357003    -0.11900
C170        C  0.16340981  0.12764344  0.67580975     0.01700
C171        C  0.12791700  0.12758072  0.68122052    -0.10500
C172        C  0.12797460  0.16307200  0.67580185     0.04200
C173        C  0.15813869  0.19349630  0.64355171    -0.09900
H174        H  0.22071847  0.15709409  0.63610740     0.09800
H175        H  0.10220306  0.10186431  0.69768904     0.07300
H176        H  0.15741137  0.22037905  0.63607614     0.07200
C177        C  0.19098715  0.19064097  0.85860082     0.04200
C178        C  0.15897900  0.19433694  0.83960639    -0.11900
C179        C  0.12837593  0.16351873  0.80849012     0.01700
C180        C  0.12828409  0.12793653  0.80361383    -0.10500
C181        C  0.16386912  0.12803417  0.80848807     0.04200
C182        C  0.19468954  0.15864112  0.83959326    -0.09900
H183        H  0.15861386  0.22140699  0.84724444     0.09800
H184        H  0.10240356  0.10205436  0.78791431     0.07300
H185        H  0.22176353  0.15828182  0.84722170     0.07200
C186        C  0.07296999  0.29827963  0.85869147     0.04200
C187        C  0.06925934  0.26257719  0.83966406    -0.11900
C188        C  0.10006079  0.26278889  0.80850848     0.01700
C189        C  0.13564251  0.29827507  0.80361436    -0.10500
C190        C  0.13555144  0.00043182  0.80850772     0.04200
C191        C  0.10496476  0.00064840  0.83966856    -0.09900
H192        H  0.04218780  0.23514540  0.84730463     0.09800
H193        H  0.16151894  0.29827226  0.78789883     0.07300
H194        H  0.10532840  0.02808218  0.84731287     0.07200
C195        C  0.07374238  0.40674720  0.12367884     0.04200
C196        C  0.10574634  0.40306235  0.14356722    -0.11900
C197        C  0.13591765  0.43348487  0.17581089     0.01700
C198        C  0.13598025  0.46897842  0.18122276    -0.10500
C199        C  0.10048985  0.46892076  0.17580154     0.04200
C200        C  0.07006758  0.43875747  0.14354866    -0.09900
H201        H  0.10646758  0.37617600  0.13610326     0.09800
H202        H  0.16169524  0.49469244  0.19769320     0.07300
H203        H  0.04318521  0.43948549  0.13607237     0.07200
C204        C  0.18750389  0.40938907  0.18543846     0.46600
H205        H  0.18750431  0.40939511  0.13709230    -0.02500
C206        C  0.18750384  0.40937577  0.29909838     0.46600
H207        H  0.18750182  0.40936830  0.34744628    -0.02500
C208        C  0.17125686  0.36832749  0.21206773    -0.16200
C209        C  0.22856196  0.43419471  0.21208500    -0.15900
C210        C  0.16269126  0.42563292  0.21207992    -0.14900
C211        C  0.17132858  0.36832375  0.27241224    -0.16300
C212        C  0.22856044  0.43425449  0.27243091    -0.15800
C213        C  0.16262554  0.42555819  0.27242425    -0.16200
C214        C  0.07638528  0.52049655  0.18543843     0.46600
H215        H  0.07637846  0.52049487  0.13709219    -0.02500
C216        C  0.07640011  0.52049846  0.29909833     0.46600
H217        H  0.07640824  0.52050091  0.34744626    -0.02500
C218        C  0.03533056  0.50424898  0.21208779    -0.16200
C219        C  0.09263719  0.49568606  0.21207560    -0.15900
C220        C  0.10120050  0.56155555  0.21206912    -0.16300
C221        C  0.03533961  0.50431700  0.27243291    -0.16300
C222        C  0.09257447  0.49561889  0.27242083    -0.15800
C223        C  0.10127542  0.56155336  0.27241350    -0.16200
C224        C  0.29860477  0.52313765  0.12369022     0.04200
C225        C  0.26292171  0.49113036  0.14356606    -0.11900
C226        C  0.26318064  0.46096324  0.17581574     0.01700
C227        C  0.29861212  0.46090206  0.18122902    -0.10500
C228        C  0.00070657  0.49639604  0.17582112     0.04200
C229        C  0.00095763  0.52681967  0.14357636    -0.09900
H230        H  0.23531215  0.49040573  0.13609226     0.09800
H231        H  0.29861468  0.43518316  0.19768424     0.07300
H232        H  0.02856442  0.55370624  0.13610990     0.07200
C233        C  0.19013264  0.63160966  0.12364519     0.04200
C234        C  0.19381224  0.33396231  0.14352423    -0.11900
C235        C  0.16339657  0.33370767  0.17578785     0.01700
C236        C  0.12790673  0.63161028  0.18121523    -0.10500
C237        C  0.12796579  0.59617772  0.17579169     0.04200
C238        C  0.15812937  0.59592320  0.14353226    -0.09900
H239        H  0.22069400  0.36157000  0.13604809     0.09800
H240        H  0.10219606  0.63161182  0.19770096     0.07300
H241        H  0.15740574  0.56831471  0.13606078     0.07200
C242        C  0.29861515  0.52391862  0.35870159     0.04200
C243        C  0.26291383  0.49192410  0.33967776    -0.11900
C244        C  0.26312935  0.46133771  0.30851373     0.01700
C245        C  0.29861886  0.46124631  0.30361758    -0.10500
C246        C  0.00077182  0.49682880  0.30851477     0.04200
C247        C  0.00098354  0.52762980  0.33967428    -0.09900
H248        H  0.23548100  0.49156114  0.34732272     0.09800
H249        H  0.29862103  0.43537011  0.28789810     0.07300
H250        H  0.02841433  0.55470153  0.34731655     0.07200
C251        C  0.19101563  0.63160006  0.35853538     0.04200
C252        C  0.19470667  0.33396982  0.33954986    -0.11900
C253        C  0.16387604  0.33375740  0.30846879     0.01700
C254        C  0.12829207  0.63160488  0.30360946    -0.10500
C255        C  0.12838975  0.59611654  0.30846854     0.04200
C256        C  0.15900770  0.59589942  0.33954478    -0.09900
H257        H  0.22177873  0.36140354  0.34717855     0.09800
H258        H  0.10240539  0.63160689  0.28792908     0.07300
H259        H  0.15864723  0.56846482  0.34716987     0.07200
C260        C  0.07291968  0.40590465  0.35859979     0.04200
C261        C  0.10491979  0.40220261  0.33959508    -0.11900
C262        C  0.13552637  0.43302386  0.30849052     0.01700
C263        C  0.13562321  0.46860928  0.30361595    -0.10500
C264        C  0.10004129  0.46851654  0.30848942     0.04200
C265        C  0.06922347  0.43791271  0.33960347    -0.09900
H266        H  0.10527953  0.37512839  0.34722495     0.09800
H267        H  0.16150474  0.49449069  0.28791844     0.07300
H268        H  0.04215383  0.43827753  0.34723927     0.07200
O269        O  0.01333988  0.34627714  0.37240771    -0.77400
C270        C  0.29861646  0.55412462  0.39583434     0.83600
O271        O  0.21693758  0.63162232  0.45058717    -0.78500
O272        O  0.24979120  0.55005237  0.57000253    -0.80000
O273        O  0.04687267  0.66436353  0.56994101    -0.79800
O274        O  0.04697754  0.37999868  0.45064075    -0.78400
Zn275      Zn  0.29863774  0.63158071  0.40393069     1.55700
O276        O  0.01412346  0.59887988  0.56998352    -0.79800
Cd277      Cd  0.01295523  0.34595453  0.51896296     1.59700
Cd278      Cd  0.25095234  0.63161712  0.51893708     1.59600
O279        O  0.33135819  0.37985879  0.56994728    -0.79800
O280        O  0.29862420  0.63160629  0.48888303    -1.90300
Cd281      Cd  0.29861810  0.58393729  0.51900774     1.59900
O282        O  0.26587756  0.34712738  0.56991244    -0.79800
O283        O  0.29860127  0.54986159  0.45072868    -0.78400
C284        C  0.22120748  0.63159853  0.39570049     0.84100
C285        C  0.04272464  0.37570681  0.39575124     0.83800
O286        O  0.29863785  0.58353699  0.37246339    -0.77400
C287        C  0.04318633  0.63162287  0.58604650     0.84600
O288        O  0.25060726  0.63157507  0.37237439    -0.77500
C289        C  0.29861689  0.37618049  0.58601540     0.84700
C290        C  0.22072416  0.55372981  0.58605045     0.85000
O291        O  0.21703205  0.58277793  0.56992407    -0.79900
O292        O  0.01335296  0.63159107  0.87245612    -0.77400
C293        C  0.22118553  0.55416941  0.89575216     0.83600
O294        O  0.29860336  0.37996071  0.95059587    -0.78500
O295        O  0.21703230  0.59886901  0.06994412    -0.80000
O296        O  0.33134507  0.58277371  0.06998510    -0.79800
O297        O  0.04702616  0.63162317  0.95071983    -0.78400
Zn298      Zn  0.29864445  0.63159050  0.90393118     1.55700
O299        O  0.26586303  0.55002470  0.06994815    -0.79800
Cd300      Cd  0.01295273  0.63160959  0.01900014     1.59700
Cd301      Cd  0.29860848  0.34594525  0.01894490     1.59600
O302        O  0.04684166  0.34710527  0.06999172    -0.79800
O303        O  0.29861797  0.63160539  0.98888375    -1.90300
Cd304      Cd  0.25093848  0.58393952  0.01896419     1.59900
O305        O  0.01411618  0.37986456  0.06992911    -0.79800
O306        O  0.21689568  0.54991553  0.95064165    -0.78400
C307        C  0.29862719  0.37569033  0.89570911     0.84100
C308        C  0.04276431  0.63161083  0.89582548     0.83800
O309        O  0.25061399  0.58355484  0.87240847    -0.77400
C310        C  0.29860344  0.55371241  0.08605421     0.84600
O311        O  0.29865058  0.34628982  0.87238226    -0.77500
C312        C  0.04316528  0.37617224  0.08604681     0.84700
C313        C  0.22071021  0.63161049  0.08601494     0.85000
O314        O  0.24976459  0.66435127  0.06991854    -0.79900
C315        C  0.29861654  0.40675641  0.62364991     0.04200
C316        C  0.26293153  0.40307654  0.64353048    -0.11900
C317        C  0.26318659  0.43349417  0.67579255     0.01700
C318        C  0.29861686  0.46898480  0.68121796    -0.10500
C319        C  0.00071498  0.46892520  0.67579438     0.04200
C320        C  0.00096887  0.43876013  0.64353685    -0.09900
H321        H  0.23532407  0.37619374  0.63605412     0.09800
H322        H  0.29861609  0.49469695  0.69770022     0.07300
H323        H  0.02857593  0.43948379  0.63606521     0.07200
C324        C  0.29862590  0.40588258  0.85854395     0.04200
C325        C  0.00099265  0.43788886  0.83954984    -0.11900
C326        C  0.00077668  0.46850668  0.80847033     0.01700
C327        C  0.29862275  0.46860572  0.80361049    -0.10500
C328        C  0.26313632  0.43302166  0.80847332     0.04200
C329        C  0.26292365  0.40219204  0.83955893    -0.09900
H330        H  0.02842575  0.43824787  0.84717468     0.09800
H331        H  0.29862164  0.49449254  0.78792799     0.07300
H332        H  0.23549008  0.37512010  0.84719017     0.07200
C333        C  0.18750723  0.40939100  0.68543714     0.46600
H334        H  0.18750245  0.40939120  0.63709090    -0.02500
C335        C  0.18751757  0.40939037  0.79909704     0.46600
H336        H  0.18752358  0.40939187  0.84744495    -0.02500
C337        C  0.17126241  0.43420342  0.71207802    -0.16200
C338        C  0.16270085  0.36833211  0.71208106    -0.15900
C339        C  0.22856725  0.42563704  0.71206952    -0.16300
C340        C  0.17133589  0.43426880  0.77242199    -0.16300
C341        C  0.16263822  0.36833352  0.77242736    -0.15800
C342        C  0.22856994  0.42556629  0.77241406    -0.16200
C343        C  0.07639566  0.52050543  0.68543711     0.46600
H344        H  0.07639642  0.52051049  0.63709015    -0.02500
C345        C  0.07639482  0.52049401  0.79909690     0.46600
H346        H  0.07639334  0.52048786  0.84744471    -0.02500
C347        C  0.03533748  0.49569144  0.71206948    -0.16200
C348        C  0.10120696  0.50425512  0.71207497    -0.15900
C349        C  0.09264437  0.56156181  0.71208374    -0.16300
C350        C  0.03534012  0.49561841  0.77241360    -0.16300
C351        C  0.10127397  0.50431870  0.77242052    -0.15800
C352        C  0.09257534  0.56155414  0.77242892    -0.16200
C353        C  0.07376344  0.63162232  0.62367664     0.04200
C354        C  0.10577087  0.33397302  0.64355212    -0.11900
C355        C  0.13593514  0.33371327  0.67580774     0.01700
C356        C  0.13599495  0.63161392  0.68122418    -0.10500
C357        C  0.10050137  0.59618604  0.67581356     0.04200
C358        C  0.07008057  0.59593532  0.64356360    -0.09900
H359        H  0.10649617  0.36158253  0.63607733     0.09800
H360        H  0.16171180  0.63161066  0.69768518     0.07300
H361        H  0.04319451  0.56832849  0.63609710     0.07200
C362        C  0.19014864  0.52315423  0.62368281     0.04200
C363        C  0.19383218  0.49114912  0.64357005    -0.11900
C364        C  0.16340982  0.46097674  0.67580971     0.01700
C365        C  0.12791706  0.46091408  0.68122051    -0.10500
C366        C  0.12797473  0.49640542  0.67580191     0.04200
C367        C  0.15813885  0.52682951  0.64355177    -0.09900
H368        H  0.22071847  0.49042733  0.63610740     0.09800
H369        H  0.10220310  0.43519772  0.69768903     0.07300
H370        H  0.15741151  0.55371328  0.63607580     0.07200
C371        C  0.19098707  0.52397425  0.85860084     0.04200
C372        C  0.15897892  0.52767022  0.83960641    -0.11900
C373        C  0.12837589  0.49685205  0.80849008     0.01700
C374        C  0.12828409  0.46126989  0.80361383    -0.10500
C375        C  0.16386907  0.46136745  0.80848808     0.04200
C376        C  0.19468937  0.49197441  0.83959323    -0.09900
H377        H  0.15861378  0.55474040  0.84724454     0.09800
H378        H  0.10240330  0.43538743  0.78791410     0.07300
H379        H  0.22176399  0.49161509  0.84722180     0.07200
C380        C  0.07296995  0.63161291  0.85869149     0.04200
C381        C  0.06925918  0.59591038  0.83966405    -0.11900
C382        C  0.10006077  0.59612224  0.80850840     0.01700
C383        C  0.13564246  0.63160841  0.80361437    -0.10500
C384        C  0.13555145  0.33376518  0.80850770     0.04200
C385        C  0.10496476  0.33398175  0.83966847    -0.09900
H386        H  0.04218833  0.56847925  0.84730437     0.09800
H387        H  0.16151897  0.63160563  0.78789872     0.07300
H388        H  0.10532834  0.36141558  0.84731278     0.07200
C389        C  0.07374235  0.74008057  0.12367880     0.04200
C390        C  0.10574631  0.73639581  0.14356717    -0.11900
C391        C  0.13591763  0.76681821  0.17581085     0.01700
C392        C  0.13598016  0.80231168  0.18122275    -0.10500
C393        C  0.10048982  0.80225409  0.17580160     0.04200
C394        C  0.07006753  0.77209082  0.14354871    -0.09900
H395        H  0.10646755  0.70950882  0.13610304     0.09800
H396        H  0.16169552  0.82802608  0.19769350     0.07300
H397        H  0.04318511  0.77281885  0.13607242     0.07200
C398        C  0.18750388  0.74272241  0.18543847     0.46600
H399        H  0.18750429  0.74272850  0.13709234    -0.02500
C400        C  0.18750386  0.74270916  0.29909839     0.46600
H401        H  0.18750183  0.74270173  0.34744624    -0.02500
C402        C  0.17125680  0.70166082  0.21206772    -0.16200
C403        C  0.22856196  0.76752805  0.21208506    -0.15900
C404        C  0.16269125  0.75896626  0.21207991    -0.14900
C405        C  0.17132862  0.70165712  0.27241223    -0.16300
C406        C  0.22856043  0.76758788  0.27243098    -0.15800
C407        C  0.16262555  0.75889157  0.27242426    -0.16200
C408        C  0.07638528  0.85382990  0.18543840     0.46600
H409        H  0.07637846  0.85382821  0.13709215    -0.02500
C410        C  0.07640009  0.85383177  0.29909831     0.46600
H411        H  0.07640817  0.85383420  0.34744627    -0.02500
C412        C  0.03533055  0.83758231  0.21208777    -0.16200
C413        C  0.09263727  0.82901947  0.21207560    -0.15900
C414        C  0.10120044  0.89488888  0.21206910    -0.16300
C415        C  0.03533962  0.83765031  0.27243291    -0.16300
C416        C  0.09257453  0.82895229  0.27242083    -0.15800
C417        C  0.10127532  0.89488666  0.27241349    -0.16200
C418        C  0.29860477  0.85647099  0.12369020     0.04200
C419        C  0.26292159  0.82446370  0.14356602    -0.11900
C420        C  0.26318065  0.79429662  0.17581581     0.01700
C421        C  0.29861210  0.79423535  0.18122907    -0.10500
C422        C  0.00070654  0.82972938  0.17582112     0.04200
C423        C  0.00095775  0.86015316  0.14357641    -0.09900
H424        H  0.23531279  0.82373909  0.13609244     0.09800
H425        H  0.29861463  0.76851692  0.19768398     0.07300
H426        H  0.02856375  0.88703900  0.13611022     0.07200
C427        C  0.19013260  0.96494307  0.12364518     0.04200
C428        C  0.19381206  0.66729549  0.14352422    -0.11900
C429        C  0.16339650  0.66704097  0.17578780     0.01700
C430        C  0.12790664  0.96494362  0.18121525    -0.10500
C431        C  0.12796573  0.92951107  0.17579168     0.04200
C432        C  0.15812934  0.92925670  0.14353228    -0.09900
H433        H  0.22069441  0.69490379  0.13604791     0.09800
H434        H  0.10219594  0.96494513  0.19770098     0.07300
H435        H  0.15740575  0.90164760  0.13606059     0.07200
C436        C  0.29861515  0.85725202  0.35870163     0.04200
C437        C  0.26291383  0.82525757  0.33967776    -0.11900
C438        C  0.26312930  0.79467110  0.30851382     0.01700
C439        C  0.29861879  0.79457982  0.30361768    -0.10500
C440        C  0.00077188  0.83016215  0.30851483     0.04200
C441        C  0.00098358  0.86096317  0.33967432    -0.09900
H442        H  0.23548095  0.82489466  0.34732264     0.09800
H443        H  0.29862090  0.76870281  0.28789765     0.07300
H444        H  0.02841437  0.88803492  0.34731656     0.07200
C445        C  0.19101557  0.96493331  0.35853539     0.04200
C446        C  0.19470676  0.66730327  0.33954995    -0.11900
C447        C  0.16387607  0.66709074  0.30846878     0.01700
C448        C  0.12829195  0.96493815  0.30360945    -0.10500
C449        C  0.12838963  0.92944982  0.30846855     0.04200
C450        C  0.15900759  0.92923267  0.33954479    -0.09900
H451        H  0.22177822  0.69473641  0.34717853     0.09800
H452        H  0.10240525  0.96494014  0.28792906     0.07300
H453        H  0.15864711  0.90179806  0.34716986     0.07200
C454        C  0.07291963  0.73923799  0.35859977     0.04200
C455        C  0.10491976  0.73553609  0.33959508    -0.11900
C456        C  0.13552638  0.76635722  0.30849055     0.01700
C457        C  0.13562312  0.80194255  0.30361598    -0.10500
C458        C  0.10004131  0.80184992  0.30848938     0.04200
C459        C  0.06922345  0.77124612  0.33960352    -0.09900
H460        H  0.10527952  0.70846108  0.34722516     0.09800
H461        H  0.16150527  0.82782451  0.28791801     0.07300
H462        H  0.04215397  0.77161100  0.34723934     0.07200
O463        O  0.01333981  0.67961046  0.37240766    -0.77400
C464        C  0.29861647  0.88745804  0.39583433     0.83600
O465        O  0.21693760  0.96495557  0.45058714    -0.78500
O466        O  0.24979106  0.88338564  0.57000249    -0.80000
O467        O  0.04687282  0.99769693  0.56994099    -0.79800
O468        O  0.04697743  0.71333193  0.45064073    -0.78400
Zn469      Zn  0.29863785  0.96491401  0.40393069     1.55700
O470        O  0.01412352  0.93221325  0.56998346    -0.79800
Cd471      Cd  0.01295513  0.67928781  0.51896295     1.59700
Cd472      Cd  0.25095226  0.96495038  0.51893708     1.59600
O473        O  0.33135825  0.71319225  0.56994723    -0.79800
O474        O  0.29862415  0.96493959  0.48888307    -1.90300
Cd475      Cd  0.29861800  0.91727056  0.51900777     1.59900
O476        O  0.26587759  0.68046082  0.56991238    -0.79800
O477        O  0.29860126  0.88319503  0.45072866    -0.78400
C478        C  0.22120749  0.96493177  0.39570045     0.84100
C479        C  0.04272455  0.70904012  0.39575121     0.83800
O480        O  0.29863787  0.91687039  0.37246333    -0.77400
C481        C  0.04318639  0.96495621  0.58604651     0.84600
O482        O  0.25060729  0.96490832  0.37237435    -0.77500
C483        C  0.29861694  0.70951394  0.58601536     0.84700
C484        C  0.22072407  0.88706315  0.58605044     0.85000
O485        O  0.21703202  0.91611130  0.56992414    -0.79900
O486        O  0.01335295  0.96492437  0.87245608    -0.77400
C487        C  0.22118554  0.88750269  0.89575219     0.83600
O488        O  0.29860326  0.71329400  0.95059595    -0.78500
O489        O  0.21703232  0.93220244  0.06994410    -0.80000
O490        O  0.33134507  0.91610704  0.06998514    -0.79800
O491        O  0.04702610  0.96495647  0.95071984    -0.78400
Zn492      Zn  0.29864455  0.96492376  0.90393118     1.55700
O493        O  0.26586305  0.88335801  0.06994811    -0.79800
Cd494      Cd  0.01295264  0.96494285  0.01900014     1.59700
Cd495      Cd  0.29860869  0.67927873  0.01894520     1.59600
O496        O  0.04684152  0.68043858  0.06999178    -0.79800
O497        O  0.29861817  0.96493881  0.98888369    -1.90300
Cd498      Cd  0.25093868  0.91727301  0.01896419     1.59900
O499        O  0.01411619  0.71319803  0.06992908    -0.79800
O500        O  0.21689564  0.88324888  0.95064168    -0.78400
C501        C  0.29862714  0.70902366  0.89570915     0.84100
C502        C  0.04276433  0.96494422  0.89582548     0.83800
O503        O  0.25061407  0.91688806  0.87240852    -0.77400
C504        C  0.29860345  0.88704574  0.08605422     0.84600
O505        O  0.29865061  0.67962323  0.87238223    -0.77500
C506        C  0.04316522  0.70950561  0.08604682     0.84700
C507        C  0.22071020  0.96494393  0.08601492     0.85000
O508        O  0.24976456  0.99768468  0.06991847    -0.79900
C509        C  0.29861648  0.74008977  0.62364991     0.04200
C510        C  0.26293158  0.73641000  0.64353044    -0.11900
C511        C  0.26318651  0.76682748  0.67579257     0.01700
C512        C  0.29861681  0.80231805  0.68121795    -0.10500
C513        C  0.00071501  0.80225851  0.67579442     0.04200
C514        C  0.00096879  0.77209346  0.64353691    -0.09900
H515        H  0.23532337  0.70952648  0.63605382     0.09800
H516        H  0.29861602  0.82803067  0.69770058     0.07300
H517        H  0.02857662  0.77281710  0.63606496     0.07200
C518        C  0.29862588  0.73921589  0.85854394     0.04200
C519        C  0.00099250  0.77122210  0.83954981    -0.11900
C520        C  0.00077672  0.80183996  0.80847033     0.01700
C521        C  0.29862268  0.80193900  0.80361048    -0.10500
C522        C  0.26313625  0.76635492  0.80847336     0.04200
C523        C  0.26292356  0.73552526  0.83955895    -0.09900
H524        H  0.02842635  0.77158109  0.84717492     0.09800
H525        H  0.29862150  0.82782553  0.78792816     0.07300
H526        H  0.23549040  0.70845372  0.84719009     0.07200
C527        C  0.18750718  0.74272429  0.68543714     0.46600
H528        H  0.18750244  0.74272444  0.63709090    -0.02500
C529        C  0.18751751  0.74272366  0.79909704     0.46600
H530        H  0.18752350  0.74272516  0.84744497    -0.02500
C531        C  0.17126237  0.76753674  0.71207799    -0.16200
C532        C  0.16270078  0.70166543  0.71208105    -0.15900
C533        C  0.22856719  0.75897031  0.71206955    -0.16300
C534        C  0.17133592  0.76760216  0.77242196    -0.16300
C535        C  0.16263812  0.70166682  0.77242735    -0.15800
C536        C  0.22856987  0.75889953  0.77241409    -0.16200
C537        C  0.07639566  0.85383874  0.68543711     0.46600
H538        H  0.07639645  0.85384378  0.63709017    -0.02500
C539        C  0.07639485  0.85382733  0.79909691     0.46600
H540        H  0.07639341  0.85382115  0.84744471    -0.02500
C541        C  0.03533750  0.82902477  0.71206951    -0.16200
C542        C  0.10120694  0.83758843  0.71207497    -0.15900
C543        C  0.09264437  0.89489513  0.71208373    -0.16300
C544        C  0.03534015  0.82895175  0.77241362    -0.16300
C545        C  0.10127399  0.83765203  0.77242051    -0.15800
C546        C  0.09257531  0.89488745  0.77242893    -0.16200
C547        C  0.07376345  0.96495569  0.62367669     0.04200
C548        C  0.10577079  0.66730638  0.64355212    -0.11900
C549        C  0.13593509  0.66704663  0.67580771     0.01700
C550        C  0.13599494  0.96494728  0.68122419    -0.10500
C551        C  0.10050140  0.92951938  0.67581351     0.04200
C552        C  0.07008054  0.92926863  0.64356364    -0.09900
H553        H  0.10649609  0.69491593  0.63607735     0.09800
H554        H  0.16171195  0.96494409  0.69768534     0.07300
H555        H  0.04319459  0.90166194  0.63609721     0.07200
C556        C  0.19014856  0.85648755  0.62368279     0.04200
C557        C  0.19383208  0.82448243  0.64357000    -0.11900
C558        C  0.16340974  0.79431004  0.67580969     0.01700
C559        C  0.12791702  0.79424746  0.68122052    -0.10500
C560        C  0.12797469  0.82973877  0.67580189     0.04200
C561        C  0.15813881  0.86016300  0.64355177    -0.09900
H562        H  0.22071835  0.82376060  0.63610732     0.09800
H563        H  0.10220294  0.76853101  0.69768907     0.07300
H564        H  0.15741151  0.88704609  0.63607603     0.07200
C565        C  0.19098710  0.85730754  0.85860084     0.04200
C566        C  0.15897895  0.86100358  0.83960647    -0.11900
C567        C  0.12837594  0.83018538  0.80849004     0.01700
C568        C  0.12828410  0.79460320  0.80361378    -0.10500
C569        C  0.16386909  0.79470076  0.80848809     0.04200
C570        C  0.19468951  0.82530770  0.83959328    -0.09900
H571        H  0.15861380  0.88807328  0.84724451     0.09800
H572        H  0.10240348  0.76872097  0.78791419     0.07300
H573        H  0.22176342  0.82494836  0.84722164     0.07200
C574        C  0.07296999  0.96494629  0.85869150     0.04200
C575        C  0.06925912  0.92924372  0.83966404    -0.11900
C576        C  0.10006070  0.92945555  0.80850838     0.01700
C577        C  0.13564230  0.96494169  0.80361443    -0.10500
C578        C  0.13555137  0.66709848  0.80850767     0.04200
C579        C  0.10496467  0.66731507  0.83966850    -0.09900
H580        H  0.04218822  0.90181260  0.84730438     0.09800
H581        H  0.16151943  0.96493884  0.78789829     0.07300
H582        H  0.10532823  0.69474854  0.84731275     0.07200
C583        C  0.40707572  0.07341382  0.12367884     0.04200
C584        C  0.43907972  0.06972914  0.14356723    -0.11900
C585        C  0.46925103  0.10015160  0.17581088     0.01700
C586        C  0.46931360  0.13564514  0.18122272    -0.10500
C587        C  0.43382318  0.13558744  0.17580153     0.04200
C588        C  0.40340090  0.10542409  0.14354871    -0.09900
H589        H  0.43980099  0.04284227  0.13610318     0.09800
H590        H  0.49502866  0.16135926  0.19769328     0.07300
H591        H  0.37651847  0.10615204  0.13607246     0.07200
C592        C  0.52083726  0.07605579  0.18543847     0.46600
H593        H  0.52083770  0.07606187  0.13709231    -0.02500
C594        C  0.52083722  0.07604250  0.29909838     0.46600
H595        H  0.52083521  0.07603504  0.34744629    -0.02500
C596        C  0.50459016  0.03499418  0.21206774    -0.16200
C597        C  0.56189532  0.10086143  0.21208501    -0.15900
C598        C  0.49602465  0.09229967  0.21207992    -0.14900
C599        C  0.50466194  0.03499044  0.27241225    -0.16300
C600        C  0.56189380  0.10092122  0.27243091    -0.15800
C601        C  0.49595891  0.09222491  0.27242426    -0.16200
C602        C  0.40971862  0.18716323  0.18543842     0.46600
H603        H  0.40971177  0.18716147  0.13709218    -0.02500
C604        C  0.40973349  0.18716519  0.29909831     0.46600
H605        H  0.40974163  0.18716767  0.34744626    -0.02500
C606        C  0.36866390  0.17091566  0.21208778    -0.16200
C607        C  0.42597054  0.16235275  0.21207560    -0.15900
C608        C  0.43453386  0.22822225  0.21206908    -0.16300
C609        C  0.36867298  0.17098371  0.27243292    -0.16300
C610        C  0.42590786  0.16228562  0.27242084    -0.15800
C611        C  0.43460876  0.22822007  0.27241345    -0.16200
C612        C  0.63193812  0.18980433  0.12369024     0.04200
C613        C  0.59625506  0.15779700  0.14356599    -0.11900
C614        C  0.59651400  0.12762992  0.17581576     0.01700
C615        C  0.63194547  0.12756875  0.18122902    -0.10500
C616        C  0.33403990  0.16306269  0.17582109     0.04200
C617        C  0.33429097  0.19348636  0.14357637    -0.09900
H618        H  0.56864549  0.15707233  0.13609217     0.09800
H619        H  0.63194801  0.10184972  0.19768440     0.07300
H620        H  0.36189768  0.22037286  0.13610997     0.07200
C621        C  0.52346597  0.29827635  0.12364521     0.04200
C622        C  0.52714538  0.00062886  0.14352432    -0.11900
C623        C  0.49672978  0.00037433  0.17578777     0.01700
C624        C  0.46124011  0.29827701  0.18121522    -0.10500
C625        C  0.46129915  0.26284444  0.17579169     0.04200
C626        C  0.49146273  0.26258993  0.14353228    -0.09900
H627        H  0.55402782  0.02823724  0.13604807     0.09800
H628        H  0.43552944  0.29827858  0.19770094     0.07300
H629        H  0.49073910  0.23498141  0.13606078     0.07200
C630        C  0.63194849  0.19058530  0.35870162     0.04200
C631        C  0.59624719  0.15859081  0.33967776    -0.11900
C632        C  0.59646270  0.12800441  0.30851369     0.01700
C633        C  0.63195220  0.12791308  0.30361764    -0.10500
C634        C  0.33410519  0.16349545  0.30851481     0.04200
C635        C  0.33431689  0.19429648  0.33967429    -0.09900
H636        H  0.56881434  0.15822786  0.34732267     0.09800
H637        H  0.63195436  0.10203623  0.28789770     0.07300
H638        H  0.36174746  0.22136802  0.34731644     0.07200
C639        C  0.52434895  0.29826672  0.35853539     0.04200
C640        C  0.52803999  0.00063643  0.33954988    -0.11900
C641        C  0.49720937  0.00042404  0.30846880     0.01700
C642        C  0.46162537  0.29827158  0.30360944    -0.10500
C643        C  0.46172305  0.26278324  0.30846852     0.04200
C644        C  0.49234095  0.26256610  0.33954487    -0.09900
H645        H  0.55511200  0.02807010  0.34717859     0.09800
H646        H  0.43573870  0.29827361  0.28792903     0.07300
H647        H  0.49198044  0.23513141  0.34717006     0.07200
C648        C  0.40625304  0.07257139  0.35859985     0.04200
C649        C  0.43825315  0.06886931  0.33959511    -0.11900
C650        C  0.46885973  0.09969056  0.30849051     0.01700
C651        C  0.46895646  0.13527586  0.30361596    -0.10500
C652        C  0.43337465  0.13518326  0.30848941     0.04200
C653        C  0.40255693  0.10457943  0.33960347    -0.09900
H654        H  0.43861289  0.04179511  0.34722500     0.09800
H655        H  0.49483865  0.16115789  0.28791799     0.07300
H656        H  0.37548662  0.10494427  0.34723944     0.07200
O657        O  0.34667323  0.01294388  0.37240764    -0.77400
C658        C  0.63194979  0.22079132  0.39583434     0.83600
O659        O  0.55027097  0.29828909  0.45058717    -0.78500
O660        O  0.58312449  0.21671896  0.57000247    -0.80000
O661        O  0.38020604  0.33103023  0.56994102    -0.79800
O662        O  0.38031088  0.04666527  0.45064075    -0.78400
Zn663      Zn  0.63197100  0.29824725  0.40393069     1.55700
O664        O  0.34745680  0.26554658  0.56998351    -0.79800
Cd665      Cd  0.34628858  0.01262124  0.51896296     1.59700
Cd666      Cd  0.58428571  0.29828383  0.51893707     1.59600
O667        O  0.66469156  0.04652549  0.56994756    -0.79800
O668        O  0.63195758  0.29827301  0.48888303    -1.90300
Cd669      Cd  0.63195147  0.25060401  0.51900775     1.59900
O670        O  0.59921090  0.01379409  0.56991237    -0.79800
O671        O  0.63193469  0.21652837  0.45072867    -0.78400
C672        C  0.55454080  0.29826518  0.39570049     0.84100
C673        C  0.37605799  0.04237349  0.39575124     0.83800
O674        O  0.63197102  0.25020360  0.37246336    -0.77400
C675        C  0.37651968  0.29828954  0.58604650     0.84600
O676        O  0.58394050  0.29824156  0.37237439    -0.77500
C677        C  0.63195023  0.04284718  0.58601548     0.84700
C678        C  0.55405749  0.22039647  0.58605043     0.85000
O679        O  0.55036545  0.24944462  0.56992410    -0.79900
O680        O  0.34668630  0.29825782  0.87245603    -0.77400
C681        C  0.55451889  0.22083614  0.89575216     0.83600
O682        O  0.63193674  0.04662745  0.95059589    -0.78500
O683        O  0.55036563  0.26553567  0.06994418    -0.80000
O684        O  0.66467838  0.24944043  0.06998515    -0.79800
O685        O  0.38035931  0.29828968  0.95071982    -0.78400
Zn686      Zn  0.63197770  0.29825703  0.90393120     1.55700
O687        O  0.59919634  0.21669128  0.06994809    -0.79800
Cd688      Cd  0.34628608  0.29827631  0.01900015     1.59700
Cd689      Cd  0.63194186  0.01261200  0.01894490     1.59600
O690        O  0.38017490  0.01377180  0.06999180    -0.79800
O691        O  0.63195132  0.29827205  0.98888374    -1.90300
Cd692      Cd  0.58427185  0.25060624  0.01896421     1.59900
O693        O  0.34744953  0.04653122  0.06992901    -0.79800
O694        O  0.55022906  0.21658228  0.95064165    -0.78400
C695        C  0.63196056  0.04235704  0.89570913     0.84100
C696        C  0.37609761  0.29827752  0.89582546     0.83800
O697        O  0.58394735  0.25022154  0.87240845    -0.77400
C698        C  0.63193677  0.22037907  0.08605422     0.84600
O699        O  0.63198397  0.01295655  0.87238227    -0.77500
C700        C  0.37649858  0.04283882  0.08604683     0.84700
C701        C  0.55404350  0.29827716  0.08601494     0.85000
O702        O  0.58309780  0.33101792  0.06991843    -0.79900
C703        C  0.63194982  0.07342308  0.62364993     0.04200
C704        C  0.59626483  0.06974321  0.64353045    -0.11900
C705        C  0.59651988  0.10016081  0.67579256     0.01700
C706        C  0.63195017  0.13565133  0.68121795    -0.10500
C707        C  0.33404832  0.13559187  0.67579436     0.04200
C708        C  0.33430222  0.10542681  0.64353682    -0.09900
H709        H  0.56865724  0.04286029  0.63605405     0.09800
H710        H  0.63194939  0.16136417  0.69770083     0.07300
H711        H  0.36190929  0.10615047  0.63606512     0.07200
C712        C  0.63195923  0.07254923  0.85854397     0.04200
C713        C  0.33432593  0.10455545  0.83954980    -0.11900
C714        C  0.33410997  0.13517330  0.80847033     0.01700
C715        C  0.63195599  0.13527214  0.80361055    -0.10500
C716        C  0.59646960  0.09968819  0.80847328     0.04200
C717        C  0.59625685  0.06885847  0.83955896    -0.09900
H718        H  0.36175903  0.10491447  0.84717464     0.09800
H719        H  0.63195483  0.16115961  0.78792754     0.07300
H720        H  0.56882396  0.04178717  0.84719006     0.07200
C721        C  0.52084056  0.07605767  0.68543713     0.46600
H722        H  0.52083579  0.07605790  0.63709089    -0.02500
C723        C  0.52085089  0.07605702  0.79909704     0.46600
H724        H  0.52085691  0.07605852  0.84744495    -0.02500
C725        C  0.50459581  0.10087016  0.71207804    -0.16200
C726        C  0.49603413  0.03499880  0.71208106    -0.15900
C727        C  0.56190056  0.09230362  0.71206953    -0.16300
C728        C  0.50466929  0.10093553  0.77242199    -0.16300
C729        C  0.49597154  0.03500018  0.77242736    -0.15800
C730        C  0.56190323  0.09223282  0.77241406    -0.16200
C731        C  0.40972897  0.18717203  0.68543712     0.46600
H732        H  0.40972978  0.18717714  0.63709015    -0.02500
C733        C  0.40972812  0.18716061  0.79909691     0.46600
H734        H  0.40972662  0.18715441  0.84744473    -0.02500
C735        C  0.36867080  0.16235806  0.71206948    -0.16200
C736        C  0.43454025  0.17092170  0.71207495    -0.15900
C737        C  0.42597769  0.22822841  0.71208376    -0.16300
C738        C  0.36867342  0.16228502  0.77241361    -0.16300
C739        C  0.43460728  0.17098532  0.77242051    -0.15800
C740        C  0.42590865  0.22822076  0.77242895    -0.16200
C741        C  0.40709677  0.29828896  0.62367665     0.04200
C742        C  0.43910414  0.00063960  0.64355217    -0.11900
C743        C  0.46926841  0.00038000  0.67580776     0.01700
C744        C  0.46932826  0.29828056  0.68122419    -0.10500
C745        C  0.43383469  0.26285265  0.67581356     0.04200
C746        C  0.40341387  0.26260193  0.64356359    -0.09900
H747        H  0.43982946  0.02824992  0.63607706     0.09800
H748        H  0.49504511  0.29827731  0.69768517     0.07300
H749        H  0.37652789  0.23499517  0.63609708     0.07200
C750        C  0.52348196  0.18982087  0.62368277     0.04200
C751        C  0.52716553  0.15781582  0.64357006    -0.11900
C752        C  0.49674320  0.12764344  0.67580975     0.01700
C753        C  0.46125042  0.12758075  0.68122050    -0.10500
C754        C  0.46130803  0.16307203  0.67580188     0.04200
C755        C  0.49147216  0.19349626  0.64355174    -0.09900
H756        H  0.55405187  0.15709405  0.63610745     0.09800
H757        H  0.43553640  0.10186427  0.69768909     0.07300
H758        H  0.49074484  0.22037931  0.63607601     0.07200
C759        C  0.52432043  0.19064097  0.85860083     0.04200
C760        C  0.49231226  0.19433693  0.83960640    -0.11900
C761        C  0.46170922  0.16351871  0.80849011     0.01700
C762        C  0.46161747  0.12793658  0.80361384    -0.10500
C763        C  0.49720246  0.12803417  0.80848807     0.04200
C764        C  0.52802275  0.15864115  0.83959324    -0.09900
H765        H  0.49194711  0.22140700  0.84724446     0.09800
H766        H  0.43573660  0.10205401  0.78791403     0.07300
H767        H  0.55509738  0.15828184  0.84722188     0.07200
C768        C  0.40630331  0.29827962  0.85869153     0.04200
C769        C  0.40259263  0.26257718  0.83966404    -0.11900
C770        C  0.43339410  0.26278889  0.80850844     0.01700
C771        C  0.46897580  0.29827509  0.80361435    -0.10500
C772        C  0.46888479  0.00043183  0.80850771     0.04200
C773        C  0.43829809  0.00064838  0.83966847    -0.09900
H774        H  0.37552112  0.23514542  0.84730457     0.09800
H775        H  0.49485229  0.29827229  0.78789871     0.07300
H776        H  0.43866168  0.02808218  0.84731278     0.07200
C777        C  0.40707565  0.40674720  0.12367886     0.04200
C778        C  0.43907962  0.40306235  0.14356721    -0.11900
C779        C  0.46925098  0.43348488  0.17581084     0.01700
C780        C  0.46931352  0.46897836  0.18122271    -0.10500
C781        C  0.43382316  0.46892076  0.17580156     0.04200
C782        C  0.40340087  0.43875747  0.14354868    -0.09900
H783        H  0.43980085  0.37617595  0.13610327     0.09800
H784        H  0.49502882  0.49469272  0.19769340     0.07300
H785        H  0.37651851  0.43948551  0.13607240     0.07200
C786        C  0.52083721  0.40938907  0.18543847     0.46600
H787        H  0.52083761  0.40939511  0.13709233    -0.02500
C788        C  0.52083716  0.40937576  0.29909839     0.46600
H789        H  0.52083511  0.40936827  0.34744626    -0.02500
C790        C  0.50459016  0.36832749  0.21206772    -0.16200
C791        C  0.56189528  0.43419470  0.21208504    -0.15900
C792        C  0.49602458  0.42563292  0.21207991    -0.14900
C793        C  0.50466197  0.36832376  0.27241221    -0.16300
C794        C  0.56189374  0.43425451  0.27243097    -0.15800
C795        C  0.49595884  0.42555816  0.27242425    -0.16200
C796        C  0.40971859  0.52049656  0.18543842     0.46600
H797        H  0.40971177  0.52049487  0.13709220    -0.02500
C798        C  0.40973342  0.52049845  0.29909832     0.46600
H799        H  0.40974153  0.52050090  0.34744625    -0.02500
C800        C  0.36866387  0.50424899  0.21208779    -0.16200
C801        C  0.42597054  0.49568609  0.21207560    -0.15900
C802        C  0.43453377  0.56155555  0.21206912    -0.16300
C803        C  0.36867295  0.50431701  0.27243291    -0.16300
C804        C  0.42590780  0.49561890  0.27242083    -0.15800
C805        C  0.43460869  0.56155336  0.27241350    -0.16200
C806        C  0.63193814  0.52313766  0.12369021     0.04200
C807        C  0.59625492  0.49113036  0.14356602    -0.11900
C808        C  0.59651397  0.46096325  0.17581577     0.01700
C809        C  0.63194542  0.46090207  0.18122903    -0.10500
C810        C  0.33403988  0.49639604  0.17582113     0.04200
C811        C  0.33429096  0.52681969  0.14357639    -0.09900
H812        H  0.56864614  0.49040577  0.13609244     0.09800
H813        H  0.63194798  0.43518314  0.19768429     0.07300
H814        H  0.36189767  0.55370621  0.13610996     0.07200
C815        C  0.52346590  0.63160966  0.12364518     0.04200
C816        C  0.52714552  0.33396231  0.14352420    -0.11900
C817        C  0.49672986  0.33370766  0.17578779     0.01700
C818        C  0.46123999  0.63161028  0.18121523    -0.10500
C819        C  0.46129905  0.59617772  0.17579169     0.04200
C820        C  0.49146263  0.59592320  0.14353226    -0.09900
H821        H  0.55402729  0.36157001  0.13604809     0.09800
H822        H  0.43552932  0.63161182  0.19770096     0.07300
H823        H  0.49073901  0.56831471  0.13606077     0.07200
C824        C  0.63194841  0.52391863  0.35870159     0.04200
C825        C  0.59624709  0.49192410  0.33967782    -0.11900
C826        C  0.59646260  0.46133766  0.30851389     0.01700
C827        C  0.63195213  0.46124635  0.30361765    -0.10500
C828        C  0.33410520  0.49682879  0.30851482     0.04200
C829        C  0.33431690  0.52762980  0.33967424    -0.09900
H830        H  0.56881426  0.49156116  0.34732273     0.09800
H831        H  0.63195428  0.43536989  0.28789794     0.07300
H832        H  0.36174766  0.55470157  0.34731649     0.07200
C833        C  0.52434891  0.63160006  0.35853543     0.04200
C834        C  0.52804000  0.33396982  0.33954990    -0.11900
C835        C  0.49720942  0.33375740  0.30846875     0.01700
C836        C  0.46162533  0.63160488  0.30360946    -0.10500
C837        C  0.46172301  0.59611654  0.30846854     0.04200
C838        C  0.49234097  0.59589943  0.33954479    -0.09900
H839        H  0.55511210  0.36140359  0.34717864     0.09800
H840        H  0.43573865  0.63160689  0.28792907     0.07300
H841        H  0.49198050  0.56846482  0.34716987     0.07200
C842        C  0.40625297  0.40590465  0.35859977     0.04200
C843        C  0.43825308  0.40220261  0.33959508    -0.11900
C844        C  0.46885971  0.43302386  0.30849057     0.01700
C845        C  0.46895654  0.46860927  0.30361596    -0.10500
C846        C  0.43337463  0.46851656  0.30848942     0.04200
C847        C  0.40255678  0.43791273  0.33960347    -0.09900
H848        H  0.43861280  0.37512832  0.34722495     0.09800
H849        H  0.49483819  0.49449078  0.28791832     0.07300
H850        H  0.37548727  0.43827756  0.34723920     0.07200
O851        O  0.34667314  0.34627714  0.37240770    -0.77400
C852        C  0.63194973  0.55412461  0.39583434     0.83600
O853        O  0.55027096  0.63162232  0.45058717    -0.78500
O854        O  0.58312446  0.55005238  0.57000253    -0.80000
O855        O  0.38020613  0.66436354  0.56994099    -0.79800
O856        O  0.38031081  0.37999868  0.45064074    -0.78400
Zn857      Zn  0.63197117  0.63158071  0.40393068     1.55700
O858        O  0.34745690  0.59887989  0.56998349    -0.79800
Cd859      Cd  0.34628852  0.34595453  0.51896293     1.59700
Cd860      Cd  0.58428563  0.63161711  0.51893709     1.59600
O861        O  0.66469151  0.37985878  0.56994728    -0.79800
O862        O  0.63195749  0.63160629  0.48888304    -1.90300
Cd863      Cd  0.63195137  0.58393729  0.51900775     1.59900
O864        O  0.59921087  0.34712738  0.56991245    -0.79800
O865        O  0.63193454  0.54986159  0.45072868    -0.78400
C866        C  0.55454081  0.63159853  0.39570048     0.84100
C867        C  0.37605790  0.37570681  0.39575123     0.83800
O868        O  0.63197115  0.58353698  0.37246337    -0.77400
C869        C  0.37651974  0.63162287  0.58604654     0.84600
O870        O  0.58394059  0.63157506  0.37237433    -0.77500
C871        C  0.63195021  0.37618048  0.58601541     0.84700
C872        C  0.55405742  0.55372982  0.58605045     0.85000
O873        O  0.55036531  0.58277793  0.56992407    -0.79900
O874        O  0.34668630  0.63159107  0.87245609    -0.77400
C875        C  0.55451891  0.55416943  0.89575217     0.83600
O876        O  0.63193665  0.37996068  0.95059595    -0.78500
O877        O  0.55036562  0.59886901  0.06994409    -0.80000
O878        O  0.66467844  0.58277373  0.06998514    -0.79800
O879        O  0.38035946  0.63162317  0.95071984    -0.78400
Zn880      Zn  0.63197793  0.63159049  0.90393119     1.55700
O881        O  0.59919640  0.55002466  0.06994812    -0.79800
Cd882      Cd  0.34628601  0.63160959  0.01900015     1.59700
Cd883      Cd  0.63194193  0.34594526  0.01894520     1.59600
O884        O  0.38017492  0.34710528  0.06999172    -0.79800
O885        O  0.63195146  0.63160539  0.98888372    -1.90300
Cd886      Cd  0.58427195  0.58393953  0.01896419     1.59900
O887        O  0.34744942  0.37986454  0.06992905    -0.79800
O888        O  0.55022899  0.54991558  0.95064165    -0.78400
C889        C  0.63196050  0.37569032  0.89570915     0.84100
C890        C  0.37609766  0.63161085  0.89582549     0.83800
O891        O  0.58394746  0.58355481  0.87240852    -0.77400
C892        C  0.63193679  0.55371240  0.08605421     0.84600
O893        O  0.63198386  0.34628980  0.87238228    -0.77500
C894        C  0.37649853  0.37617223  0.08604681     0.84700
C895        C  0.55404350  0.63161049  0.08601492     0.85000
O896        O  0.58309786  0.66435126  0.06991847    -0.79900
C897        C  0.63194982  0.40675640  0.62364990     0.04200
C898        C  0.59626482  0.40307654  0.64353047    -0.11900
C899        C  0.59651988  0.43349417  0.67579256     0.01700
C900        C  0.63195016  0.46898481  0.68121797    -0.10500
C901        C  0.33404836  0.46892521  0.67579437     0.04200
C902        C  0.33430213  0.43876015  0.64353689    -0.09900
H903        H  0.56865732  0.37619370  0.63605411     0.09800
H904        H  0.63194939  0.49469695  0.69770021     0.07300
H905        H  0.36191010  0.43948383  0.63606497     0.07200
C906        C  0.63195925  0.40588259  0.85854392     0.04200
C907        C  0.33432585  0.43788881  0.83954984    -0.11900
C908        C  0.33411008  0.46850667  0.80847034     0.01700
C909        C  0.63195606  0.46860575  0.80361048    -0.10500
C910        C  0.59646963  0.43302166  0.80847336     0.04200
C911        C  0.59625694  0.40219199  0.83955895    -0.09900
H912        H  0.36175968  0.43824780  0.84717493     0.09800
H913        H  0.63195490  0.49449224  0.78792822     0.07300
H914        H  0.56882378  0.37512046  0.84719008     0.07200
C915        C  0.52084055  0.40939100  0.68543714     0.46600
H916        H  0.52083583  0.40939120  0.63709089    -0.02500
C917        C  0.52085084  0.40939036  0.79909703     0.46600
H918        H  0.52085683  0.40939186  0.84744495    -0.02500
C919        C  0.50459570  0.43420342  0.71207800    -0.16200
C920        C  0.49603414  0.36833211  0.71208104    -0.15900
C921        C  0.56190055  0.42563704  0.71206955    -0.16300
C922        C  0.50466917  0.43426878  0.77242197    -0.16300
C923        C  0.49597150  0.36833352  0.77242735    -0.15800
C924        C  0.56190323  0.42556629  0.77241409    -0.16200
C925        C  0.40972902  0.52050543  0.68543711     0.46600
H926        H  0.40972981  0.52051048  0.63709018    -0.02500
C927        C  0.40972821  0.52049402  0.79909691     0.46600
H928        H  0.40972678  0.52048786  0.84744471    -0.02500
C929        C  0.36867085  0.49569145  0.71206950    -0.16200
C930        C  0.43454031  0.50425512  0.71207498    -0.15900
C931        C  0.42597770  0.56156180  0.71208374    -0.16300
C932        C  0.36867351  0.49561840  0.77241361    -0.16300
C933        C  0.43460737  0.50431874  0.77242051    -0.15800
C934        C  0.42590865  0.56155413  0.77242892    -0.16200
C935        C  0.40709680  0.63162234  0.62367671     0.04200
C936        C  0.43910412  0.33397301  0.64355213    -0.11900
C937        C  0.46926842  0.33371328  0.67580774     0.01700
C938        C  0.46932827  0.63161391  0.68122419    -0.10500
C939        C  0.43383472  0.59618603  0.67581352     0.04200
C940        C  0.40341389  0.59593531  0.64356365    -0.09900
H941        H  0.43982944  0.36158253  0.63607734     0.09800
H942        H  0.49504520  0.63161066  0.69768523     0.07300
H943        H  0.37652786  0.56832853  0.63609721     0.07200
C944        C  0.52348191  0.52315423  0.62368280     0.04200
C945        C  0.52716545  0.49114912  0.64357005    -0.11900
C946        C  0.49674310  0.46097673  0.67580970     0.01700
C947        C  0.46125033  0.46091407  0.68122051    -0.10500
C948        C  0.46130801  0.49640541  0.67580188     0.04200
C949        C  0.49147212  0.52682951  0.64355176    -0.09900
H950        H  0.55405174  0.49042734  0.63610739     0.09800
H951        H  0.43553639  0.43519775  0.69768899     0.07300
H952        H  0.49074478  0.55371327  0.63607581     0.07200
C953        C  0.52432047  0.52397426  0.85860080     0.04200
C954        C  0.49231231  0.52767028  0.83960644    -0.11900
C955        C  0.46170930  0.49685208  0.80849005     0.01700
C956        C  0.46161740  0.46126985  0.80361383    -0.10500
C957        C  0.49720241  0.46136744  0.80848809     0.04200
C958        C  0.52802286  0.49197441  0.83959323    -0.09900
H959        H  0.49194716  0.55474000  0.84724447     0.09800
H960        H  0.43573692  0.43538776  0.78791435     0.07300
H961        H  0.55509678  0.49161507  0.84722158     0.07200
C962        C  0.40630332  0.63161294  0.85869151     0.04200
C963        C  0.40259247  0.59591038  0.83966402    -0.11900
C964        C  0.43339405  0.59612223  0.80850837     0.01700
C965        C  0.46897576  0.63160837  0.80361436    -0.10500
C966        C  0.46888473  0.33376517  0.80850767     0.04200
C967        C  0.43829805  0.33398180  0.83966851    -0.09900
H968        H  0.37552159  0.56847927  0.84730435     0.09800
H969        H  0.49485232  0.63160553  0.78789865     0.07300
H970        H  0.43866162  0.36141525  0.84731274     0.07200
C971        C  0.40707569  0.74008056  0.12367884     0.04200
C972        C  0.43907963  0.73639587  0.14356722    -0.11900
C973        C  0.46925097  0.76681820  0.17581088     0.01700
C974        C  0.46931347  0.80231168  0.18122276    -0.10500
C975        C  0.43382314  0.80225411  0.17580160     0.04200
C976        C  0.40340083  0.77209083  0.14354872    -0.09900
H977        H  0.43980086  0.70950851  0.13610292     0.09800
H978        H  0.49502892  0.82802612  0.19769354     0.07300
H979        H  0.37651853  0.77281885  0.13607245     0.07200
C980        C  0.52083725  0.74272241  0.18543845     0.46600
H981        H  0.52083771  0.74272849  0.13709229    -0.02500
C982        C  0.52083725  0.74270918  0.29909838     0.46600
H983        H  0.52083528  0.74270175  0.34744626    -0.02500
C984        C  0.50459011  0.70166081  0.21206772    -0.16200
C985        C  0.56189533  0.76752803  0.21208501    -0.15900
C986        C  0.49602464  0.75896630  0.21207989    -0.14900
C987        C  0.50466193  0.70165712  0.27241223    -0.16300
C988        C  0.56189380  0.76758788  0.27243091    -0.15800
C989        C  0.49595897  0.75889162  0.27242425    -0.16200
C990        C  0.40971856  0.85382990  0.18543840     0.46600
H991        H  0.40971172  0.85382821  0.13709214    -0.02500
C992        C  0.40973336  0.85383176  0.29909831     0.46600
H993        H  0.40974141  0.85383419  0.34744627    -0.02500
C994        C  0.36866384  0.83758232  0.21208777    -0.16200
C995        C  0.42597057  0.82901948  0.21207559    -0.15900
C996        C  0.43453373  0.89488889  0.21206909    -0.16300
C997        C  0.36867290  0.83765030  0.27243290    -0.16300
C998        C  0.42590780  0.82895227  0.27242083    -0.15800
C999        C  0.43460861  0.89488667  0.27241350    -0.16200
C1000       C  0.63193812  0.85647100  0.12369022     0.04200
C1001       C  0.59625494  0.82446371  0.14356603    -0.11900
C1002       C  0.59651401  0.79429663  0.17581580     0.01700
C1003       C  0.63194547  0.79423536  0.18122907    -0.10500
C1004       C  0.33403986  0.82972940  0.17582112     0.04200
C1005       C  0.33429105  0.86015315  0.14357641    -0.09900
H1006       H  0.56864623  0.82373909  0.13609250     0.09800
H1007       H  0.63194798  0.76851688  0.19768400     0.07300
H1008       H  0.36189711  0.88703906  0.13611025     0.07200
C1009       C  0.52346598  0.96494306  0.12364528     0.04200
C1010       C  0.52714532  0.66729548  0.14352421    -0.11900
C1011       C  0.49672977  0.66704096  0.17578780     0.01700
C1012       C  0.46124000  0.96494363  0.18121518    -0.10500
C1013       C  0.46129906  0.92951107  0.17579166     0.04200
C1014       C  0.49146272  0.92925664  0.14353235    -0.09900
H1015       H  0.55402768  0.69490378  0.13604791     0.09800
H1016       H  0.43552927  0.96494516  0.19770095     0.07300
H1017       H  0.49073914  0.90164793  0.13606074     0.07200
C1018       C  0.63194850  0.85725202  0.35870162     0.04200
C1019       C  0.59624706  0.82525757  0.33967772    -0.11900
C1020       C  0.59646269  0.79467115  0.30851366     0.01700
C1021       C  0.63195215  0.79457978  0.30361761    -0.10500
C1022       C  0.33410515  0.83016211  0.30851481     0.04200
C1023       C  0.33431697  0.86096320  0.33967437    -0.09900
H1024       H  0.56881494  0.82489465  0.34732243     0.09800
H1025       H  0.63195430  0.76870308  0.28789787     0.07300
H1026       H  0.36174735  0.88803449  0.34731651     0.07200
C1027       C  0.52434895  0.96493330  0.35853531     0.04200
C1028       C  0.52804003  0.66730326  0.33954997    -0.11900
C1029       C  0.49720933  0.66709073  0.30846879     0.01700
C1030       C  0.46162537  0.96493818  0.30360944    -0.10500
C1031       C  0.46172297  0.92944982  0.30846857     0.04200
C1032       C  0.49234091  0.92923266  0.33954482    -0.09900
H1033       H  0.55511149  0.69473640  0.34717852     0.09800
H1034       H  0.43573853  0.96494018  0.28792895     0.07300
H1035       H  0.49198038  0.90179802  0.34716997     0.07200
C1036       C  0.40625302  0.73923798  0.35859979     0.04200
C1037       C  0.43825319  0.73553605  0.33959510    -0.11900
C1038       C  0.46885975  0.76635725  0.30849051     0.01700
C1039       C  0.46895642  0.80194254  0.30361594    -0.10500
C1040       C  0.43337460  0.80184989  0.30848938     0.04200
C1041       C  0.40255677  0.77124606  0.33960354    -0.09900
H1042       H  0.43861301  0.70846144  0.34722507     0.09800
H1043       H  0.49483853  0.82782453  0.28791801     0.07300
H1044       H  0.37548731  0.77161089  0.34723936     0.07200
O1045       O  0.34667313  0.67961047  0.37240766    -0.77400
C1046       C  0.63194981  0.88745803  0.39583434     0.83600
O1047       O  0.55027091  0.96495557  0.45058712    -0.78500
O1048       O  0.58312436  0.88338564  0.57000248    -0.80000
O1049       O  0.38020611  0.99769692  0.56994099    -0.79800
O1050       O  0.38031078  0.71333194  0.45064072    -0.78400
Zn1051     Zn  0.63197114  0.96491401  0.40393069     1.55700
O1052       O  0.34745687  0.93221324  0.56998348    -0.79800
Cd1053     Cd  0.34628860  0.67928780  0.51896294     1.59700
Cd1054     Cd  0.58428555  0.96495038  0.51893707     1.59600
O1055       O  0.66469161  0.71319225  0.56994749    -0.79800
O1056       O  0.63195751  0.96493959  0.48888307    -1.90300
Cd1057     Cd  0.63195129  0.91727056  0.51900776     1.59900
O1058       O  0.59921096  0.68046082  0.56991238    -0.79800
O1059       O  0.63193473  0.88319507  0.45072866    -0.78400
C1060       C  0.55454082  0.96493175  0.39570044     0.84100
C1061       C  0.37605792  0.70904009  0.39575121     0.83800
O1062       O  0.63197111  0.91687034  0.37246336    -0.77400
C1063       C  0.37651973  0.96495622  0.58604650     0.84600
O1064       O  0.58394063  0.96490832  0.37237438    -0.77500
C1065       C  0.63195029  0.70951394  0.58601545     0.84700
C1066       C  0.55405738  0.88706316  0.58605046     0.85000
O1067       O  0.55036532  0.91611130  0.56992415    -0.79900
O1068       O  0.34668630  0.96492437  0.87245606    -0.77400
C1069       C  0.55451893  0.88750267  0.89575219     0.83600
O1070       O  0.63193654  0.71329399  0.95059587    -0.78500
O1071       O  0.55036560  0.93220244  0.06994406    -0.80000
O1072       O  0.66467834  0.91610704  0.06998513    -0.79800
O1073       O  0.38035945  0.96495647  0.95071981    -0.78400
Zn1074     Zn  0.63197782  0.96492377  0.90393118     1.55700
O1075       O  0.59919633  0.88335800  0.06994814    -0.79800
Cd1076     Cd  0.34628611  0.96494285  0.01900014     1.59700
Cd1077     Cd  0.63194197  0.67927873  0.01894491     1.59600
O1078       O  0.38017495  0.68043858  0.06999178    -0.79800
O1079       O  0.63195144  0.96493881  0.98888370    -1.90300
Cd1080     Cd  0.58427196  0.91727302  0.01896419     1.59900
O1081       O  0.34744960  0.71319800  0.06992903    -0.79800
O1082       O  0.55022911  0.88324883  0.95064168    -0.78400
C1083       C  0.63196056  0.70902368  0.89570910     0.84100
C1084       C  0.37609767  0.96494419  0.89582545     0.83800
O1085       O  0.58394738  0.91688810  0.87240848    -0.77400
C1086       C  0.63193673  0.88704574  0.08605424     0.84600
O1087       O  0.63198414  0.67962327  0.87238226    -0.77500
C1088       C  0.37649862  0.70950561  0.08604683     0.84700
C1089       C  0.55404351  0.96494392  0.08601492     0.85000
O1090       O  0.58309785  0.99768469  0.06991843    -0.79900
C1091       C  0.63194979  0.74008977  0.62364993     0.04200
C1092       C  0.59626486  0.73640997  0.64353041    -0.11900
C1093       C  0.59651988  0.76682750  0.67579256     0.01700
C1094       C  0.63195019  0.80231803  0.68121795    -0.10500
C1095       C  0.33404830  0.80225851  0.67579442     0.04200
C1096       C  0.33430209  0.77209348  0.64353692    -0.09900
H1097       H  0.56865695  0.70952677  0.63605392     0.09800
H1098       H  0.63194941  0.82803073  0.69770063     0.07300
H1099       H  0.36190999  0.77281714  0.63606496     0.07200
C1100       C  0.63195923  0.73921588  0.85854391     0.04200
C1101       C  0.33432595  0.77122210  0.83954980    -0.11900
C1102       C  0.33411003  0.80183995  0.80847032     0.01700
C1103       C  0.63195599  0.80193901  0.80361050    -0.10500
C1104       C  0.59646958  0.76635490  0.80847339     0.04200
C1105       C  0.59625698  0.73552529  0.83955891    -0.09900
H1106       H  0.36175909  0.77158109  0.84717469     0.09800
H1107       H  0.63195478  0.82782556  0.78792813     0.07300
H1108       H  0.56882341  0.70845330  0.84719014     0.07200
C1109       C  0.52084057  0.74272429  0.68543713     0.46600
H1110       H  0.52083581  0.74272445  0.63709090    -0.02500
C1111       C  0.52085087  0.74272365  0.79909704     0.46600
H1112       H  0.52085690  0.74272515  0.84744496    -0.02500
C1113       C  0.50459576  0.76753676  0.71207800    -0.16200
C1114       C  0.49603417  0.70166542  0.71208105    -0.15900
C1115       C  0.56190056  0.75897031  0.71206955    -0.16300
C1116       C  0.50466928  0.76760215  0.77242196    -0.16300
C1117       C  0.49597150  0.70166682  0.77242735    -0.15800
C1118       C  0.56190323  0.75889953  0.77241410    -0.16200
C1119       C  0.40972898  0.85383873  0.68543712     0.46600
H1120       H  0.40972979  0.85384378  0.63709018    -0.02500
C1121       C  0.40972815  0.85382733  0.79909691     0.46600
H1122       H  0.40972669  0.85382115  0.84744470    -0.02500
C1123       C  0.36867081  0.82902473  0.71206951    -0.16200
C1124       C  0.43454028  0.83758845  0.71207499    -0.15900
C1125       C  0.42597768  0.89489513  0.71208374    -0.16300
C1126       C  0.36867345  0.82895175  0.77241362    -0.16300
C1127       C  0.43460731  0.83765204  0.77242053    -0.15800
C1128       C  0.42590864  0.89488746  0.77242892    -0.16200
C1129       C  0.40709678  0.96495567  0.62367668     0.04200
C1130       C  0.43910418  0.66730633  0.64355212    -0.11900
C1131       C  0.46926844  0.66704663  0.67580774     0.01700
C1132       C  0.46932844  0.96494730  0.68122425    -0.10500
C1133       C  0.43383474  0.92951938  0.67581350     0.04200
C1134       C  0.40341400  0.92926870  0.64356361    -0.09900
H1135       H  0.43982953  0.69491630  0.63607717     0.09800
H1136       H  0.49504463  0.96494411  0.69768471     0.07300
H1137       H  0.37652767  0.90166159  0.63609703     0.07200
C1138       C  0.52348187  0.85648756  0.62368278     0.04200
C1139       C  0.52716540  0.82448244  0.64356998    -0.11900
C1140       C  0.49674310  0.79431005  0.67580970     0.01700
C1141       C  0.46125036  0.79424745  0.68122054    -0.10500
C1142       C  0.46130801  0.82973876  0.67580189     0.04200
C1143       C  0.49147211  0.86016298  0.64355174    -0.09900
H1144       H  0.55405171  0.82376064  0.63610728     0.09800
H1145       H  0.43553634  0.76853103  0.69768906     0.07300
H1146       H  0.49074480  0.88704611  0.63607601     0.07200
C1147       C  0.52432045  0.85730752  0.85860087     0.04200
C1148       C  0.49231233  0.86100353  0.83960643    -0.11900
C1149       C  0.46170928  0.83018540  0.80849008     0.01700
C1150       C  0.46161743  0.79460319  0.80361378    -0.10500
C1151       C  0.49720243  0.79470076  0.80848808     0.04200
C1152       C  0.52802283  0.82530767  0.83959328    -0.09900
H1153       H  0.49194721  0.88807368  0.84724458     0.09800
H1154       H  0.43573684  0.76872100  0.78791423     0.07300
H1155       H  0.55509681  0.82494834  0.84722167     0.07200
C1156       C  0.40630334  0.96494628  0.85869147     0.04200
C1157       C  0.40259257  0.92924373  0.83966410    -0.11900
C1158       C  0.43339413  0.92945556  0.80850845     0.01700
C1159       C  0.46897584  0.96494172  0.80361438    -0.10500
C1160       C  0.46888476  0.66709848  0.80850772     0.04200
C1161       C  0.43829809  0.66731503  0.83966856    -0.09900
H1162       H  0.37552168  0.90181257  0.84730447     0.09800
H1163       H  0.49485224  0.96493890  0.78789884     0.07300
H1164       H  0.43866171  0.69474886  0.84731288     0.07200
C1165       C  0.74040900  0.07341382  0.12367885     0.04200
C1166       C  0.77241300  0.06972914  0.14356722    -0.11900
C1167       C  0.80258436  0.10015161  0.17581082     0.01700
C1168       C  0.80264687  0.13564509  0.18122267    -0.10500
C1169       C  0.76715650  0.13558744  0.17580154     0.04200
C1170       C  0.73673419  0.10542409  0.14354873    -0.09900
H1171       H  0.77313426  0.04284222  0.13610320     0.09800
H1172       H  0.82836224  0.16135953  0.19769348     0.07300
H1173       H  0.70985177  0.10615207  0.13607250     0.07200
C1174       C  0.85417058  0.07605578  0.18543846     0.46600
H1175       H  0.85417099  0.07606186  0.13709232    -0.02500
C1176       C  0.85417055  0.07604249  0.29909838     0.46600
H1177       H  0.85416852  0.07603503  0.34744627    -0.02500
C1178       C  0.83792351  0.03499418  0.21206773    -0.16200
C1179       C  0.89522863  0.10086141  0.21208501    -0.15900
C1180       C  0.82935797  0.09229966  0.21207990    -0.14900
C1181       C  0.83799533  0.03499045  0.27241223    -0.16300
C1182       C  0.89522711  0.10092124  0.27243092    -0.15800
C1183       C  0.82929222  0.09222488  0.27242426    -0.16200
C1184       C  0.74305194  0.18716323  0.18543842     0.46600
H1185       H  0.74304508  0.18716148  0.13709218    -0.02500
C1186       C  0.74306679  0.18716518  0.29909831     0.46600
H1187       H  0.74307491  0.18716765  0.34744626    -0.02500
C1188       C  0.70199722  0.17091566  0.21208779    -0.16200
C1189       C  0.75930389  0.16235278  0.21207560    -0.15900
C1190       C  0.76786713  0.22822226  0.21206909    -0.16300
C1191       C  0.70200631  0.17098372  0.27243292    -0.16300
C1192       C  0.75924119  0.16228563  0.27242084    -0.15800
C1193       C  0.76794205  0.22822007  0.27241347    -0.16200
C1194       C  0.96527147  0.18980433  0.12369022     0.04200
C1195       C  0.92958826  0.15779700  0.14356596    -0.11900
C1196       C  0.92984732  0.12762992  0.17581577     0.01700
C1197       C  0.96527877  0.12756875  0.18122903    -0.10500
C1198       C  0.66737323  0.16306270  0.17582111     0.04200
C1199       C  0.66762432  0.19348637  0.14357641    -0.09900
H1200       H  0.90197947  0.15707237  0.13609234     0.09800
H1201       H  0.96528131  0.10184971  0.19768444     0.07300
H1202       H  0.69523095  0.22037283  0.13611005     0.07200
C1203       C  0.85679926  0.29827636  0.12364518     0.04200
C1204       C  0.86047873  0.00062886  0.14352427    -0.11900
C1205       C  0.83006317  0.00037433  0.17578782     0.01700
C1206       C  0.79457337  0.29827701  0.18121522    -0.10500
C1207       C  0.79463241  0.26284444  0.17579168     0.04200
C1208       C  0.82479601  0.26258994  0.14353226    -0.09900
H1209       H  0.88736122  0.02823729  0.13604795     0.09800
H1210       H  0.76886271  0.29827858  0.19770095     0.07300
H1211       H  0.82407237  0.23498143  0.13606078     0.07200
C1212       C  0.96528180  0.19058528  0.35870163     0.04200
C1213       C  0.92958050  0.15859084  0.33967776    -0.11900
C1214       C  0.92979600  0.12800442  0.30851370     0.01700
C1215       C  0.96528549  0.12791314  0.30361766    -0.10500
C1216       C  0.66743854  0.16349544  0.30851485     0.04200
C1217       C  0.66765026  0.19429650  0.33967427    -0.09900
H1218       H  0.90214762  0.15822788  0.34732267     0.09800
H1219       H  0.96528760  0.10203598  0.28789751     0.07300
H1220       H  0.69508084  0.22136809  0.34731638     0.07200
C1221       C  0.85768226  0.29826674  0.35853544     0.04200
C1222       C  0.86137332  0.00063642  0.33954991    -0.11900
C1223       C  0.83054274  0.00042404  0.30846876     0.01700
C1224       C  0.79495866  0.29827155  0.30360947    -0.10500
C1225       C  0.79505636  0.26278323  0.30846853     0.04200
C1226       C  0.82567431  0.26256610  0.33954478    -0.09900
H1227       H  0.88844538  0.02807014  0.34717868     0.09800
H1228       H  0.76907196  0.29827357  0.28792905     0.07300
H1229       H  0.82531386  0.23513150  0.34716986     0.07200
C1230       C  0.73958635  0.07257138  0.35859983     0.04200
C1231       C  0.77158644  0.06886931  0.33959512    -0.11900
C1232       C  0.80219307  0.09969056  0.30849055     0.01700
C1233       C  0.80228978  0.13527584  0.30361597    -0.10500
C1234       C  0.76670801  0.13518328  0.30848941     0.04200
C1235       C  0.73589014  0.10457945  0.33960350    -0.09900
H1236       H  0.77194616  0.04179504  0.34722498     0.09800
H1237       H  0.82817210  0.16115798  0.28791786     0.07300
H1238       H  0.70882063  0.10494431  0.34723923     0.07200
O1239       O  0.68000649  0.01294388  0.37240763    -0.77400
C1240       C  0.96528312  0.22079131  0.39583434     0.83600
O1241       O  0.88360436  0.29828910  0.45058717    -0.78500
O1242       O  0.91645775  0.21671896  0.57000247    -0.80000
O1243       O  0.71353949  0.33103024  0.56994100    -0.79800
O1244       O  0.71364415  0.04666527  0.45064074    -0.78400
Zn1245     Zn  0.96530447  0.29824724  0.40393068     1.55700
O1246       O  0.68079025  0.26554658  0.56998348    -0.79800
Cd1247     Cd  0.67962187  0.01262124  0.51896297     1.59700
Cd1248     Cd  0.91761899  0.29828383  0.51893709     1.59600
O1249       O  0.99802490  0.04652547  0.56994755    -0.79800
O1250       O  0.96529086  0.29827301  0.48888304    -1.90300
Cd1251     Cd  0.96528473  0.25060402  0.51900776     1.59900
O1252       O  0.93254424  0.01379409  0.56991237    -0.79800
O1253       O  0.96526792  0.21652834  0.45072868    -0.78400
C1254       C  0.88787416  0.29826519  0.39570048     0.84100
C1255       C  0.70939125  0.04237350  0.39575123     0.83800
O1256       O  0.96530451  0.25020364  0.37246333    -0.77400
C1257       C  0.70985308  0.29828954  0.58604653     0.84600
O1258       O  0.91727385  0.29824156  0.37237433    -0.77500
C1259       C  0.96528357  0.04284717  0.58601550     0.84700
C1260       C  0.88739075  0.22039647  0.58605043     0.85000
O1261       O  0.88369871  0.24944462  0.56992410    -0.79900
O1262       O  0.68001961  0.29825782  0.87245611    -0.77400
C1263       C  0.88785226  0.22083615  0.89575216     0.83600
O1264       O  0.96527004  0.04662744  0.95059590    -0.78500
O1265       O  0.88369893  0.26553565  0.06994412    -0.80000
O1266       O  0.99801175  0.24944045  0.06998519    -0.79800
O1267       O  0.71369269  0.29828968  0.95071981    -0.78400
Zn1268     Zn  0.96531103  0.29825703  0.90393120     1.55700
O1269       O  0.93252971  0.21669125  0.06994805    -0.79800
Cd1270     Cd  0.67961939  0.29827631  0.01900014     1.59700
Cd1271     Cd  0.96527532  0.01261201  0.01894489     1.59600
O1272       O  0.71350816  0.01377180  0.06999180    -0.79800
O1273       O  0.96528478  0.29827207  0.98888375    -1.90300
Cd1274     Cd  0.91760532  0.25060624  0.01896421     1.59900
O1275       O  0.68078280  0.04653122  0.06992902    -0.79800
O1276       O  0.88356238  0.21658233  0.95064165    -0.78400
C1277       C  0.96529387  0.04235704  0.89570914     0.84100
C1278       C  0.70943096  0.29827755  0.89582546     0.83800
O1279       O  0.91728077  0.25022150  0.87240847    -0.77400
C1280       C  0.96527012  0.22037907  0.08605422     0.84600
O1281       O  0.96531725  0.01295654  0.87238228    -0.77500
C1282       C  0.70983184  0.04283883  0.08604684     0.84700
C1283       C  0.88737682  0.29827715  0.08601493     0.85000
O1284       O  0.91643118  0.33101790  0.06991852    -0.79900
C1285       C  0.96528315  0.07342307  0.62364997     0.04200
C1286       C  0.92959814  0.06974320  0.64353044    -0.11900
C1287       C  0.92985318  0.10016081  0.67579256     0.01700
C1288       C  0.96528345  0.13565134  0.68121795    -0.10500
C1289       C  0.66738167  0.13559187  0.67579435     0.04200
C1290       C  0.66763545  0.10542681  0.64353685    -0.09900
H1291       H  0.90199060  0.04286031  0.63605401     0.09800
H1292       H  0.96528266  0.16136415  0.69770081     0.07300
H1293       H  0.69524328  0.10615049  0.63606492     0.07200
C1294       C  0.96529258  0.07254924  0.85854393     0.04200
C1295       C  0.66765915  0.10455541  0.83954981    -0.11900
C1296       C  0.66744336  0.13517328  0.80847033     0.01700
C1297       C  0.96528929  0.13527217  0.80361053    -0.10500
C1298       C  0.92980291  0.09968819  0.80847332     0.04200
C1299       C  0.92959013  0.06885843  0.83955898    -0.09900
H1300       H  0.69509300  0.10491441  0.84717487     0.09800
H1301       H  0.96528807  0.16115931  0.78792776     0.07300
H1302       H  0.90215766  0.04178753  0.84718997     0.07200
C1303       C  0.85417388  0.07605768  0.68543714     0.46600
H1304       H  0.85416918  0.07605790  0.63709089    -0.02500
C1305       C  0.85418416  0.07605701  0.79909704     0.46600
H1306       H  0.85419016  0.07605851  0.84744496    -0.02500
C1307       C  0.83792911  0.10087015  0.71207802    -0.16200
C1308       C  0.82936746  0.03499880  0.71208104    -0.15900
C1309       C  0.89523386  0.09230362  0.71206955    -0.16300
C1310       C  0.83800257  0.10093550  0.77242197    -0.16300
C1311       C  0.82930481  0.03500018  0.77242735    -0.15800
C1312       C  0.89523652  0.09223281  0.77241410    -0.16200
C1313       C  0.74306232  0.18717203  0.68543712     0.46600
H1314       H  0.74306315  0.18717714  0.63709017    -0.02500
C1315       C  0.74306147  0.18716062  0.79909692     0.46600
H1316       H  0.74305995  0.18715441  0.84744472    -0.02500
C1317       C  0.70200415  0.16235806  0.71206947    -0.16200
C1318       C  0.76787359  0.17092171  0.71207498    -0.15900
C1319       C  0.75931099  0.22822840  0.71208377    -0.16300
C1320       C  0.70200678  0.16228502  0.77241360    -0.16300
C1321       C  0.76794065  0.17098535  0.77242053    -0.15800
C1322       C  0.75924193  0.22822075  0.77242895    -0.16200
C1323       C  0.74043011  0.29828897  0.62367669     0.04200
C1324       C  0.77243747  0.00063961  0.64355215    -0.11900
C1325       C  0.80260178  0.00038000  0.67580772     0.01700
C1326       C  0.80266154  0.29828053  0.68122421    -0.10500
C1327       C  0.76716796  0.26285264  0.67581358     0.04200
C1328       C  0.73674716  0.26260192  0.64356363    -0.09900
H1329       H  0.77316278  0.02824983  0.63607718     0.09800
H1330       H  0.82837838  0.29827728  0.69768516     0.07300
H1331       H  0.70986115  0.23499516  0.63609712     0.07200
C1332       C  0.85681522  0.18982087  0.62368277     0.04200
C1333       C  0.86049880  0.15781582  0.64357005    -0.11900
C1334       C  0.83007648  0.12764343  0.67580974     0.01700
C1335       C  0.79458369  0.12758074  0.68122050    -0.10500
C1336       C  0.79464131  0.16307202  0.67580187     0.04200
C1337       C  0.82480543  0.19349626  0.64355173    -0.09900
H1338       H  0.88738514  0.15709406  0.63610744     0.09800
H1339       H  0.76886969  0.10186429  0.69768905     0.07300
H1340       H  0.82407810  0.22037930  0.63607602     0.07200
C1341       C  0.85765383  0.19064098  0.85860079     0.04200
C1342       C  0.82564565  0.19433698  0.83960643    -0.11900
C1343       C  0.79504261  0.16351873  0.80849009     0.01700
C1344       C  0.79495078  0.12793655  0.80361385    -0.10500
C1345       C  0.83053579  0.12803417  0.80848807     0.04200
C1346       C  0.86135623  0.15864114  0.83959324    -0.09900
H1347       H  0.82528049  0.22140661  0.84724439     0.09800
H1348       H  0.76907022  0.10205436  0.78791429     0.07300
H1349       H  0.88843017  0.15828182  0.84722165     0.07200
C1350       C  0.73963663  0.29827964  0.85869147     0.04200
C1351       C  0.73592591  0.26257719  0.83966401    -0.11900
C1352       C  0.76672738  0.26278888  0.80850842     0.01700
C1353       C  0.80230910  0.29827504  0.80361434    -0.10500
C1354       C  0.80221806  0.00043182  0.80850770     0.04200
C1355       C  0.77163136  0.00064843  0.83966851    -0.09900
H1356       H  0.70885437  0.23514543  0.84730455     0.09800
H1357       H  0.82818564  0.29827220  0.78789864     0.07300
H1358       H  0.77199495  0.02808190  0.84731277     0.07200
C1359       C  0.74040899  0.40674719  0.12367890     0.04200
C1360       C  0.77241294  0.40306241  0.14356726    -0.11900
C1361       C  0.80258431  0.43348488  0.17581083     0.01700
C1362       C  0.80264683  0.46897836  0.18122272    -0.10500
C1363       C  0.76715649  0.46892078  0.17580156     0.04200
C1364       C  0.73673417  0.43875748  0.14354869    -0.09900
H1365       H  0.77313416  0.37617564  0.13610315     0.09800
H1366       H  0.82836221  0.49469276  0.19769344     0.07300
H1367       H  0.70985194  0.43948551  0.13607244     0.07200
C1368       C  0.85417057  0.40938907  0.18543846     0.46600
H1369       H  0.85417104  0.40939511  0.13709230    -0.02500
C1370       C  0.85417045  0.40937576  0.29909838     0.46600
H1371       H  0.85416837  0.40936827  0.34744627    -0.02500
C1372       C  0.83792347  0.36832749  0.21206773    -0.16200
C1373       C  0.89522863  0.43419469  0.21208506    -0.15900
C1374       C  0.82935794  0.42563295  0.21207986    -0.14900
C1375       C  0.83799523  0.36832375  0.27241222    -0.16300
C1376       C  0.89522704  0.43425452  0.27243100    -0.15800
C1377       C  0.82929217  0.42555818  0.27242420    -0.16200
C1378       C  0.74305190  0.52049655  0.18543842     0.46600
H1379       H  0.74304506  0.52049486  0.13709217    -0.02500
C1380       C  0.74306670  0.52049846  0.29909832     0.46600
H1381       H  0.74307477  0.52050090  0.34744626    -0.02500
C1382       C  0.70199717  0.50424896  0.21208779    -0.16200
C1383       C  0.75930386  0.49568610  0.21207560    -0.15900
C1384       C  0.76786706  0.56155555  0.21206911    -0.16300
C1385       C  0.70200624  0.50431701  0.27243291    -0.16300
C1386       C  0.75924108  0.49561889  0.27242084    -0.15800
C1387       C  0.76794198  0.56155337  0.27241350    -0.16200
C1388       C  0.96527147  0.52313766  0.12369022     0.04200
C1389       C  0.92958826  0.49113037  0.14356604    -0.11900
C1390       C  0.92984733  0.46096325  0.17581580     0.01700
C1391       C  0.96527878  0.46090208  0.18122904    -0.10500
C1392       C  0.66737320  0.49639604  0.17582115     0.04200
C1393       C  0.66762427  0.52681968  0.14357641    -0.09900
H1394       H  0.90197957  0.49040577  0.13609251     0.09800
H1395       H  0.96528134  0.43518309  0.19768435     0.07300
H1396       H  0.69523108  0.55370627  0.13611000     0.07200
C1397       C  0.85679926  0.63160967  0.12364527     0.04200
C1398       C  0.86047879  0.33396231  0.14352418    -0.11900
C1399       C  0.83006313  0.33370766  0.17578779     0.01700
C1400       C  0.79457330  0.63161027  0.18121518    -0.10500
C1401       C  0.79463237  0.59617773  0.17579168     0.04200
C1402       C  0.82479600  0.59592314  0.14353234    -0.09900
H1403       H  0.88736056  0.36157002  0.13604807     0.09800
H1404       H  0.76886262  0.63161182  0.19770095     0.07300
H1405       H  0.82407242  0.56831503  0.13606095     0.07200
C1406       C  0.96528181  0.52391865  0.35870159     0.04200
C1407       C  0.92958034  0.49192414  0.33967786    -0.11900
C1408       C  0.92979592  0.46133768  0.30851390     0.01700
C1409       C  0.96528542  0.46124636  0.30361763    -0.10500
C1410       C  0.66743847  0.49682880  0.30851480     0.04200
C1411       C  0.66765016  0.52762981  0.33967425    -0.09900
H1412       H  0.90214827  0.49156125  0.34732259     0.09800
H1413       H  0.96528752  0.43536987  0.28789794     0.07300
H1414       H  0.69508094  0.55470159  0.34731650     0.07200
C1415       C  0.85768233  0.63160004  0.35853531     0.04200
C1416       C  0.86137327  0.33396982  0.33954993    -0.11900
C1417       C  0.83054268  0.33375739  0.30846876     0.01700
C1418       C  0.79495874  0.63160491  0.30360946    -0.10500
C1419       C  0.79505635  0.59611654  0.30846856     0.04200
C1420       C  0.82567431  0.59589941  0.33954483    -0.09900
H1421       H  0.88844535  0.36140359  0.34717865     0.09800
H1422       H  0.76907194  0.63160694  0.28792898     0.07300
H1423       H  0.82531377  0.56846477  0.34716997     0.07200
C1424       C  0.73958636  0.40590464  0.35859981     0.04200
C1425       C  0.77158650  0.40220258  0.33959512    -0.11900
C1426       C  0.80219304  0.43302389  0.30849051     0.01700
C1427       C  0.80228982  0.46860927  0.30361593    -0.10500
C1428       C  0.76670791  0.46851654  0.30848942     0.04200
C1429       C  0.73589009  0.43791267  0.33960349    -0.09900
H1430       H  0.77194628  0.37512868  0.34722485     0.09800
H1431       H  0.82817145  0.49449080  0.28791831     0.07300
H1432       H  0.70882062  0.43827745  0.34723922     0.07200
O1433       O  0.68000647  0.34627716  0.37240769    -0.77400
C1434       C  0.96528310  0.55412462  0.39583435     0.83600
O1435       O  0.88360430  0.63162232  0.45058712    -0.78500
O1436       O  0.91645775  0.55005237  0.57000253    -0.80000
O1437       O  0.71353942  0.66436353  0.56994098    -0.79800
O1438       O  0.71364416  0.37999869  0.45064073    -0.78400
Zn1439     Zn  0.96530449  0.63158071  0.40393070     1.55700
O1440       O  0.68079021  0.59887987  0.56998349    -0.79800
Cd1441     Cd  0.67962198  0.34595453  0.51896293     1.59700
Cd1442     Cd  0.91761892  0.63161711  0.51893708     1.59600
O1443       O  0.99802478  0.37985873  0.56994754    -0.79800
O1444       O  0.96529084  0.63160628  0.48888303    -1.90300
Cd1445     Cd  0.96528466  0.58393728  0.51900774     1.59900
O1446       O  0.93254414  0.34712741  0.56991242    -0.79800
O1447       O  0.96526801  0.54986164  0.45072868    -0.78400
C1448       C  0.88787421  0.63159851  0.39570044     0.84100
C1449       C  0.70939128  0.37570678  0.39575123     0.83800
O1450       O  0.96530439  0.58353693  0.37246340    -0.77400
C1451       C  0.70985307  0.63162287  0.58604651     0.84600
O1452       O  0.91727402  0.63157507  0.37237438    -0.77500
C1453       C  0.96528349  0.37618048  0.58601550     0.84700
C1454       C  0.88739073  0.55372982  0.58605047     0.85000
O1455       O  0.88369861  0.58277793  0.56992407    -0.79900
O1456       O  0.68001966  0.63159106  0.87245606    -0.77400
C1457       C  0.88785230  0.55416941  0.89575216     0.83600
O1458       O  0.96526993  0.37996064  0.95059593    -0.78500
O1459       O  0.88369890  0.59886901  0.06994406    -0.80000
O1460       O  0.99801170  0.58277374  0.06998514    -0.79800
O1461       O  0.71369281  0.63162317  0.95071981    -0.78400
Zn1462     Zn  0.96531120  0.63159050  0.90393119     1.55700
O1463       O  0.93252967  0.55002465  0.06994815    -0.79800
Cd1464     Cd  0.67961949  0.63160959  0.01900015     1.59700
Cd1465     Cd  0.96527523  0.34594525  0.01894519     1.59600
O1466       O  0.71350836  0.34710528  0.06999173    -0.79800
O1467       O  0.96528471  0.63160541  0.98888377    -1.90300
Cd1468     Cd  0.91760522  0.58393953  0.01896420     1.59900
O1469       O  0.68078285  0.37986454  0.06992907    -0.79800
O1470       O  0.88356246  0.54991553  0.95064165    -0.78400
C1471       C  0.96529391  0.37569034  0.89570914     0.84100
C1472       C  0.70943100  0.63161083  0.89582546     0.83800
O1473       O  0.91728076  0.58355484  0.87240847    -0.77400
C1474       C  0.96527007  0.55371240  0.08605423     0.84600
O1475       O  0.96531736  0.34628986  0.87238229    -0.77500
C1476       C  0.70983194  0.37617223  0.08604683     0.84700
C1477       C  0.88737679  0.63161048  0.08601493     0.85000
O1478       O  0.91643113  0.66435128  0.06991851    -0.79900
C1479       C  0.96528311  0.40675641  0.62364993     0.04200
C1480       C  0.92959809  0.40307651  0.64353044    -0.11900
C1481       C  0.92985323  0.43349419  0.67579255     0.01700
C1482       C  0.96528352  0.46898475  0.68121794    -0.10500
C1483       C  0.66738165  0.46892520  0.67579436     0.04200
C1484       C  0.66763542  0.43876015  0.64353687    -0.09900
H1485       H  0.90199088  0.37619398  0.63605422     0.09800
H1486       H  0.96528278  0.49469727  0.69770046     0.07300
H1487       H  0.69524332  0.43948382  0.63606498     0.07200
C1488       C  0.96529260  0.40588258  0.85854391     0.04200
C1489       C  0.66765932  0.43788882  0.83954983    -0.11900
C1490       C  0.66744340  0.46850666  0.80847033     0.01700
C1491       C  0.96528936  0.46860575  0.80361050    -0.10500
C1492       C  0.92980295  0.43302165  0.80847339     0.04200
C1493       C  0.92959035  0.40219203  0.83955891    -0.09900
H1494       H  0.69509246  0.43824781  0.84717471     0.09800
H1495       H  0.96528815  0.49449229  0.78792813     0.07300
H1496       H  0.90215678  0.37512004  0.84719014     0.07200
C1497       C  0.85417390  0.40939099  0.68543713     0.46600
H1498       H  0.85416915  0.40939119  0.63709088    -0.02500
C1499       C  0.85418423  0.40939036  0.79909704     0.46600
H1500       H  0.85419027  0.40939186  0.84744496    -0.02500
C1501       C  0.83792913  0.43420347  0.71207801    -0.16200
C1502       C  0.82936745  0.36833211  0.71208105    -0.15900
C1503       C  0.89523391  0.42563701  0.71206954    -0.16300
C1504       C  0.83800261  0.43426883  0.77242197    -0.16300
C1505       C  0.82930484  0.36833351  0.77242736    -0.15800
C1506       C  0.89523659  0.42556626  0.77241408    -0.16200
C1507       C  0.74306234  0.52050542  0.68543712     0.46600
H1508       H  0.74306315  0.52051048  0.63709018    -0.02500
C1509       C  0.74306151  0.52049402  0.79909691     0.46600
H1510       H  0.74306006  0.52048787  0.84744471    -0.02500
C1511       C  0.70200416  0.49569141  0.71206949    -0.16200
C1512       C  0.76787366  0.50425515  0.71207500    -0.15900
C1513       C  0.75931101  0.56156181  0.71208375    -0.16300
C1514       C  0.70200682  0.49561840  0.77241360    -0.16300
C1515       C  0.76794069  0.50431875  0.77242053    -0.15800
C1516       C  0.75924197  0.56155414  0.77242892    -0.16200
C1517       C  0.74043011  0.63162230  0.62367669     0.04200
C1518       C  0.77243749  0.33397297  0.64355209    -0.11900
C1519       C  0.80260173  0.33371328  0.67580775     0.01700
C1520       C  0.80266176  0.63161394  0.68122425    -0.10500
C1521       C  0.76716805  0.59618602  0.67581350     0.04200
C1522       C  0.73674743  0.59593547  0.64356364    -0.09900
H1523       H  0.77316286  0.36158289  0.63607713     0.09800
H1524       H  0.82837793  0.63161068  0.69768470     0.07300
H1525       H  0.70986046  0.56832770  0.63609687     0.07200
C1526       C  0.85681521  0.52315423  0.62368280     0.04200
C1527       C  0.86049877  0.49114913  0.64357003    -0.11900
C1528       C  0.83007646  0.46097674  0.67580971     0.01700
C1529       C  0.79458367  0.46091405  0.68122053    -0.10500
C1530       C  0.79464133  0.49640540  0.67580188     0.04200
C1531       C  0.82480541  0.52682949  0.64355174    -0.09900
H1532       H  0.88738511  0.49042738  0.63610734     0.09800
H1533       H  0.76886979  0.43519776  0.69768898     0.07300
H1534       H  0.82407806  0.55371329  0.63607579     0.07200
C1535       C  0.85765383  0.52397425  0.85860083     0.04200
C1536       C  0.82564569  0.52767023  0.83960640    -0.11900
C1537       C  0.79504263  0.49685208  0.80849009     0.01700
C1538       C  0.79495075  0.46126983  0.80361382    -0.10500
C1539       C  0.83053577  0.46136745  0.80848809     0.04200
C1540       C  0.86135620  0.49197439  0.83959325    -0.09900
H1541       H  0.82528057  0.55474039  0.84724453     0.09800
H1542       H  0.76907029  0.43538777  0.78791437     0.07300
H1543       H  0.88843017  0.49161507  0.84722162     0.07200
C1544       C  0.73963666  0.63161291  0.85869149     0.04200
C1545       C  0.73592597  0.59591044  0.83966405    -0.11900
C1546       C  0.76672749  0.59612224  0.80850844     0.01700
C1547       C  0.80230920  0.63160841  0.80361438    -0.10500
C1548       C  0.80221812  0.33376517  0.80850774     0.04200
C1549       C  0.77163146  0.33398176  0.83966856    -0.09900
H1550       H  0.70885476  0.56847896  0.84730443     0.09800
H1551       H  0.82818564  0.63160562  0.78789880     0.07300
H1552       H  0.77199509  0.36141558  0.84731287     0.07200
C1553       C  0.74040910  0.74008056  0.12367879     0.04200
C1554       C  0.77241306  0.73639581  0.14356717    -0.11900
C1555       C  0.80258434  0.76681820  0.17581090     0.01700
C1556       C  0.80264693  0.80231174  0.18122280    -0.10500
C1557       C  0.76715653  0.80225410  0.17580160     0.04200
C1558       C  0.73673428  0.77209082  0.14354869    -0.09900
H1559       H  0.77313431  0.70950887  0.13610303     0.09800
H1560       H  0.82836198  0.82802580  0.19769331     0.07300
H1561       H  0.70985184  0.77281882  0.13607238     0.07200
C1562       C  0.85417059  0.74272242  0.18543848     0.46600
H1563       H  0.85417103  0.74272851  0.13709233    -0.02500
C1564       C  0.85417057  0.74270917  0.29909840     0.46600
H1565       H  0.85416855  0.74270174  0.34744627    -0.02500
C1566       C  0.83792348  0.70166082  0.21206774    -0.16200
C1567       C  0.89522866  0.76752807  0.21208506    -0.15900
C1568       C  0.82935797  0.75896628  0.21207993    -0.14900
C1569       C  0.83799527  0.70165712  0.27241226    -0.16300
C1570       C  0.89522715  0.76758786  0.27243097    -0.15800
C1571       C  0.82929228  0.75889160  0.27242426    -0.16200
C1572       C  0.74305197  0.85382989  0.18543841     0.46600
H1573       H  0.74304516  0.85382820  0.13709216    -0.02500
C1574       C  0.74306675  0.85383177  0.29909832     0.46600
H1575       H  0.74307480  0.85383421  0.34744627    -0.02500
C1576       C  0.70199724  0.83758234  0.21208776    -0.16200
C1577       C  0.75930393  0.82901944  0.21207562    -0.15900
C1578       C  0.76786716  0.89488888  0.21206909    -0.16300
C1579       C  0.70200628  0.83765031  0.27243289    -0.16300
C1580       C  0.75924119  0.82895227  0.27242084    -0.15800
C1581       C  0.76794204  0.89488667  0.27241348    -0.16200
C1582       C  0.96527144  0.85647099  0.12369021     0.04200
C1583       C  0.92958839  0.82446371  0.14356603    -0.11900
C1584       C  0.92984731  0.79429663  0.17581580     0.01700
C1585       C  0.96527878  0.79423536  0.18122909    -0.10500
C1586       C  0.66737324  0.82972939  0.17582107     0.04200
C1587       C  0.66762442  0.86015314  0.14357635    -0.09900
H1588       H  0.90197883  0.82373908  0.13609222     0.09800
H1589       H  0.96528126  0.76851686  0.19768401     0.07300
H1590       H  0.69523047  0.88703902  0.13611014     0.07200
C1591       C  0.85679933  0.96494305  0.12364522     0.04200
C1592       C  0.86047858  0.66729543  0.14352422    -0.11900
C1593       C  0.83006309  0.66704096  0.17578777     0.01700
C1594       C  0.79457340  0.96494364  0.18121524    -0.10500
C1595       C  0.79463242  0.92951106  0.17579162     0.04200
C1596       C  0.82479606  0.92925668  0.14353229    -0.09900
H1597       H  0.88736125  0.69490406  0.13604783     0.09800
H1598       H  0.76886263  0.96494518  0.19770104     0.07300
H1599       H  0.82407247  0.90164765  0.13606066     0.07200
C1600       C  0.96528182  0.85725203  0.35870162     0.04200
C1601       C  0.92958052  0.82525753  0.33967775    -0.11900
C1602       C  0.92979604  0.79467108  0.30851381     0.01700
C1603       C  0.96528554  0.79457977  0.30361766    -0.10500
C1604       C  0.66743852  0.83016213  0.30851478     0.04200
C1605       C  0.66765024  0.86096314  0.33967433    -0.09900
H1606       H  0.90214767  0.82489460  0.34732261     0.09800
H1607       H  0.96528771  0.76870307  0.28789784     0.07300
H1608       H  0.69508099  0.88803480  0.34731660     0.07200
C1609       C  0.85768225  0.96493330  0.35853538     0.04200
C1610       C  0.86137347  0.66730327  0.33954990    -0.11900
C1611       C  0.83054273  0.66709075  0.30846882     0.01700
C1612       C  0.79495871  0.96493818  0.30360942    -0.10500
C1613       C  0.79505635  0.92944982  0.30846854     0.04200
C1614       C  0.82567424  0.92923267  0.33954486    -0.09900
H1615       H  0.88844490  0.69473636  0.34717841     0.09800
H1616       H  0.76907202  0.96494018  0.28792905     0.07300
H1617       H  0.82531372  0.90179797  0.34717006     0.07200
C1618       C  0.73958633  0.73923798  0.35859977     0.04200
C1619       C  0.77158649  0.73553603  0.33959508    -0.11900
C1620       C  0.80219307  0.76635722  0.30849051     0.01700
C1621       C  0.80228983  0.80194256  0.30361597    -0.10500
C1622       C  0.76670798  0.80184991  0.30848940     0.04200
C1623       C  0.73589027  0.77124610  0.33960350    -0.09900
H1624       H  0.77194627  0.70846142  0.34722504     0.09800
H1625       H  0.82817184  0.82782442  0.28791814     0.07300
H1626       H  0.70881998  0.77161097  0.34723955     0.07200
O1627       O  0.68000643  0.67961052  0.37240768    -0.77400
C1628       C  0.96528308  0.88745803  0.39583433     0.83600
O1629       O  0.88360422  0.96495556  0.45058717    -0.78500
O1630       O  0.91645777  0.88338561  0.57000252    -0.80000
O1631       O  0.71353940  0.99769692  0.56994100    -0.79800
O1632       O  0.71364420  0.71333190  0.45064072    -0.78400
Zn1633     Zn  0.96530440  0.96491402  0.40393069     1.55700
O1634       O  0.68079015  0.93221324  0.56998351    -0.79800
Cd1635     Cd  0.67962188  0.67928781  0.51896297     1.59700
Cd1636     Cd  0.91761901  0.96495039  0.51893707     1.59600
O1637       O  0.99802486  0.71319228  0.56994719    -0.79800
O1638       O  0.96529087  0.96493961  0.48888305    -1.90300
Cd1639     Cd  0.96528458  0.91727056  0.51900776     1.59900
O1640       O  0.93254422  0.68046080  0.56991241    -0.79800
O1641       O  0.96526799  0.88319507  0.45072866    -0.78400
C1642       C  0.88787410  0.96493175  0.39570048     0.84100
C1643       C  0.70939126  0.70904011  0.39575121     0.83800
O1644       O  0.96530437  0.91687034  0.37246335    -0.77400
C1645       C  0.70985303  0.96495622  0.58604649     0.84600
O1646       O  0.91727390  0.96490832  0.37237439    -0.77500
C1647       C  0.96528357  0.70951394  0.58601534     0.84700
C1648       C  0.88739080  0.88706314  0.58605045     0.85000
O1649       O  0.88369879  0.91611131  0.56992414    -0.79900
O1650       O  0.68001956  0.96492437  0.87245606    -0.77400
C1651       C  0.88785219  0.88750267  0.89575219     0.83600
O1652       O  0.96527000  0.71329401  0.95059593    -0.78500
O1653       O  0.88369904  0.93220245  0.06994416    -0.80000
O1654       O  0.99801174  0.91610702  0.06998510    -0.79800
O1655       O  0.71369272  0.96495647  0.95071981    -0.78400
Zn1656     Zn  0.96531110  0.96492376  0.90393117     1.55700
O1657       O  0.93252971  0.88335805  0.06994813    -0.79800
Cd1658     Cd  0.67961937  0.96494285  0.01900014     1.59700
Cd1659     Cd  0.96527524  0.67927872  0.01894521     1.59600
O1660       O  0.71350830  0.68043858  0.06999178    -0.79800
O1661       O  0.96528471  0.96493879  0.98888367    -1.90300
Cd1662     Cd  0.91760525  0.91727301  0.01896419     1.59900
O1663       O  0.68078294  0.71319801  0.06992900    -0.79800
O1664       O  0.88356237  0.88324883  0.95064169    -0.78400
C1665       C  0.96529387  0.70902366  0.89570914     0.84100
C1666       C  0.70943093  0.96494420  0.89582545     0.83800
O1667       O  0.91728064  0.91688810  0.87240848    -0.77400
C1668       C  0.96527013  0.88704575  0.08605422     0.84600
O1669       O  0.96531737  0.67962324  0.87238222    -0.77500
C1670       C  0.70983197  0.70950560  0.08604680     0.84700
C1671       C  0.88737690  0.96494393  0.08601494     0.85000
O1672       O  0.91643121  0.99768470  0.06991838    -0.79900
C1673       C  0.96528315  0.74008977  0.62364988     0.04200
C1674       C  0.92959828  0.73641001  0.64353047    -0.11900
C1675       C  0.92985322  0.76682748  0.67579258     0.01700
C1676       C  0.96528352  0.80231804  0.68121795    -0.10500
C1677       C  0.66738165  0.80225850  0.67579443     0.04200
C1678       C  0.66763555  0.77209345  0.64353690    -0.09900
H1679       H  0.90199001  0.70952643  0.63605387     0.09800
H1680       H  0.96528274  0.82803070  0.69770062     0.07300
H1681       H  0.69524262  0.77281709  0.63606519     0.07200
C1682       C  0.96529255  0.73921588  0.85854398     0.04200
C1683       C  0.66765929  0.77122213  0.83954981    -0.11900
C1684       C  0.66744333  0.80183996  0.80847032     0.01700
C1685       C  0.96528939  0.80193897  0.80361049    -0.10500
C1686       C  0.92980295  0.76635490  0.80847332     0.04200
C1687       C  0.92959029  0.73552529  0.83955893    -0.09900
H1688       H  0.69509238  0.77158114  0.84717467     0.09800
H1689       H  0.96528826  0.82782583  0.78792792     0.07300
H1690       H  0.90215673  0.70845335  0.84719017     0.07200
C1691       C  0.85417389  0.74272429  0.68543714     0.46600
H1692       H  0.85416910  0.74272444  0.63709092    -0.02500
C1693       C  0.85418421  0.74272366  0.79909704     0.46600
H1694       H  0.85419021  0.74272516  0.84744495    -0.02500
C1695       C  0.83792909  0.76753675  0.71207801    -0.16200
C1696       C  0.82936745  0.70166543  0.71208106    -0.15900
C1697       C  0.89523390  0.75897030  0.71206955    -0.16300
C1698       C  0.83800261  0.76760216  0.77242198    -0.16300
C1699       C  0.82930480  0.70166683  0.77242735    -0.15800
C1700       C  0.89523658  0.75889952  0.77241407    -0.16200
C1701       C  0.74306230  0.85383873  0.68543711     0.46600
H1702       H  0.74306308  0.85384379  0.63709015    -0.02500
C1703       C  0.74306145  0.85382732  0.79909690     0.46600
H1704       H  0.74305997  0.85382115  0.84744471    -0.02500
C1705       C  0.70200414  0.82902472  0.71206950    -0.16200
C1706       C  0.76787362  0.83758845  0.71207497    -0.15900
C1707       C  0.75931094  0.89489512  0.71208374    -0.16300
C1708       C  0.70200676  0.82895172  0.77241361    -0.16300
C1709       C  0.76794062  0.83765203  0.77242051    -0.15800
C1710       C  0.75924190  0.89488745  0.77242893    -0.16200
C1711       C  0.74043013  0.96495568  0.62367662     0.04200
C1712       C  0.77243750  0.66730637  0.64355214    -0.11900
C1713       C  0.80260175  0.66704663  0.67580774     0.01700
C1714       C  0.80266164  0.96494728  0.68122419    -0.10500
C1715       C  0.76716805  0.92951939  0.67581354     0.04200
C1716       C  0.73674725  0.92926865  0.64356357    -0.09900
H1717       H  0.77316280  0.69491602  0.63607722     0.09800
H1718       H  0.82837853  0.96494406  0.69768521     0.07300
H1719       H  0.70986127  0.90166192  0.63609709     0.07200
C1720       C  0.85681528  0.85648755  0.62368276     0.04200
C1721       C  0.86049883  0.82448244  0.64356998    -0.11900
C1722       C  0.83007648  0.79431006  0.67580969     0.01700
C1723       C  0.79458377  0.79424748  0.68122053    -0.10500
C1724       C  0.79464141  0.82973879  0.67580193     0.04200
C1725       C  0.82480554  0.86016299  0.64355177    -0.09900
H1726       H  0.88738500  0.82376064  0.63610736     0.09800
H1727       H  0.76886967  0.76853097  0.69768913     0.07300
H1728       H  0.82407823  0.88704617  0.63607604     0.07200
C1729       C  0.85765374  0.85730752  0.85860088     0.04200
C1730       C  0.82564560  0.86100353  0.83960643    -0.11900
C1731       C  0.79504257  0.83018538  0.80849007     0.01700
C1732       C  0.79495081  0.79460324  0.80361379    -0.10500
C1733       C  0.83053576  0.79470077  0.80848808     0.04200
C1734       C  0.86135604  0.82530770  0.83959327    -0.09900
H1735       H  0.82528046  0.88807369  0.84724459     0.09800
H1736       H  0.76906988  0.76872065  0.78791396     0.07300
H1737       H  0.88843066  0.82494837  0.84722185     0.07200
C1738       C  0.73963660  0.96494628  0.85869146     0.04200
C1739       C  0.73592583  0.92924373  0.83966410    -0.11900
C1740       C  0.76672740  0.92945556  0.80850845     0.01700
C1741       C  0.80230910  0.96494172  0.80361438    -0.10500
C1742       C  0.80221810  0.66709849  0.80850771     0.04200
C1743       C  0.77163140  0.66731501  0.83966850    -0.09900
H1744       H  0.70885495  0.90181258  0.84730447     0.09800
H1745       H  0.82818555  0.96493890  0.78789874     0.07300
H1746       H  0.77199496  0.69474884  0.84731281     0.07200
loop_ 
_geom_bond_atom_site_label_1 
_geom_bond_atom_site_label_2 
_geom_bond_distance 
_geom_bond_site_symmetry_2 
_ccdc_geom_bond_type 
C1            C2   1.411       .  A
C1            C6   1.411       .  A
C1          C118   1.480       .  S
C2            C3   1.402       .  A
C2            H7   1.084       .  S
C3            C4   1.398       .  A
C3           C16   1.490       .  S
C4            C5   1.398       .  A
C4            H8   1.078       .  S
C5            C6   1.402       .  A
C5           C25   1.490       .  S
C6            H9   1.084       .  S
C10          H11   1.112       .  S
C10          C16   1.534       .  S
C10          C15   1.534       .  S
C10          C14   1.534       .  S
C12          H13   1.112       .  S
C12          C18   1.534       .  S
C12          C17   1.534       .  S
C12          C19   1.534       .  S
C14          C41   1.490       .  S
C14          C17   1.387       .  D
C15          C32   1.490       .  S
C15          C18   1.387       .  D
C16          C19   1.387       .  D
C17          C59   1.489       .  S
C18          C50   1.489       .  S
C19          C68   1.489       .  S
C20          H21   1.112       .  S
C20          C26   1.534       .  S
C20          C25   1.534       .  S
C20          C24   1.534       .  S
C22          H23   1.112       .  S
C22          C28   1.534       .  S
C22          C27   1.534       .  S
C22          C29   1.534       .  S
C24          C34   1.490       .  S
C24          C27   1.387       .  D
C25          C28   1.387       .  D
C26          C43   1.490       .  S
C26          C29   1.387       .  D
C27          C52   1.489       .  S
C28          C70   1.489       .  S
C29          C61   1.489       .  S
C30          C31   1.411       .  A
C30         C617   1.411       .  A
C30         C116   1.480       .  S
C31          C32   1.402       .  A
C31          H36   1.084       .  S
C32          C33   1.398       .  A
C33         C616   1.398       .  A
C33          H37   1.078       .  S
C34          C35   1.402       .  A
C34        C1197   1.398   1_455  A
C35        C1194   1.411   1_455  A
C35          H38   1.084       .  S
C39          C44   1.411       .  A
C39         C234   1.411       .  A
C39         C119   1.480       .  S
C40          C41   1.402       .  A
C40         C427   1.411   1_545  A
C40          H45   1.084       .  S
C41         C430   1.398   1_545  A
C42          C43   1.398       .  A
C42         C235   1.398       .  A
C42          H46   1.078       .  S
C43          C44   1.402       .  A
C44          H47   1.084       .  S
C48          C49   1.405       .  A
C48         C635   1.405       .  A
C48          C76   1.461       .  S
C49          C50   1.402       .  A
C49          H54   1.084       .  S
C50          C51   1.400       .  A
C51         C634   1.400       .  A
C51          H55   1.078       .  S
C52          C53   1.402       .  A
C52        C1215   1.400   1_455  A
C53        C1212   1.405   1_455  A
C53          H56   1.084       .  S
C57          C62   1.405       .  A
C57         C252   1.405       .  A
C57          C90   1.461       .  S
C58          C59   1.402       .  A
C58         C445   1.405   1_545  A
C58          H63   1.084       .  S
C59         C448   1.400   1_545  A
C60          C61   1.400       .  A
C60         C253   1.400       .  A
C60          H64   1.078       .  S
C61          C62   1.402       .  A
C62          H65   1.084       .  S
C66          C67   1.405       .  A
C66          C71   1.405       .  A
C66          C91   1.461       .  S
C67          C68   1.402       .  A
C67          H72   1.084       .  S
C68          C69   1.400       .  A
C69          C70   1.400       .  A
C69          H73   1.078       .  S
C70          C71   1.402       .  A
C71          H74   1.084       .  S
O75          C91   1.273       .  A
O75       Zn1633   2.020   1_445  S
C76          O92   1.273       .  A
C76          O89   1.273       .  A
O77          C90   1.273       .  A
O77         Cd84   2.062       .  S
O78          C96   1.274       .  A
O78         Cd87   2.066       .  S
O79          C93   1.274       .  A
O79        Cd277   2.066       .  S
O80          C91   1.273       .  A
O80         Cd83   2.062       .  S
Zn81         O92   2.020       .  S
Zn81         O94   2.020       .  S
Zn81        O851   2.020       .  S
Zn81         O86   1.953       .  S
O82          C93   1.274       .  A
O82       Cd1251   2.066   1_455  S
Cd83        O467   2.066   1_545  S
Cd83       O1249   2.066   1_455  S
Cd83       O1638   1.995   1_445  S
Cd84         O97   2.067       .  S
Cd84        O282   2.067       .  S
Cd84         O86   1.995       .  S
O85          C95   1.274       .  A
O85        Cd665   2.066       .  S
O86         Cd87   1.995       .  S
O86        Cd859   1.995       .  S
Cd87         O89   2.062       .  S
Cd87        O664   2.066       .  S
O88          C95   1.274       .  A
O88        Cd472   2.067   1_545  S
C90          O94   1.273       .  A
C93         C159   1.480       .  S
C95         C121   1.480       .  S
C96         C168   1.480       .  S
C96          O97   1.274       .  A
O98         C114   1.273       .  A
O98       Zn1268   2.020   1_455  S
C99         C177   1.461       .  S
C99         O115   1.273       .  A
C99         O112   1.273       .  A
O100        C113   1.273       .  A
O100       Cd107   2.062   1_556  S
O101        C119   1.274       .  A
O101       Cd110   2.066       .  S
O102        C116   1.274       .  A
O102       Cd688   2.066       .  S
O103        C114   1.273       .  A
O103       Cd106   2.062   1_556  S
Zn104       O115   2.020       .  S
Zn104       O680   2.020       .  S
Zn104       O311   2.020       .  S
Zn104       O109   1.953       .  S
O105        C116   1.274       .  A
O105       Cd110   2.066       .  S
Cd106      O1266   2.066   1_455  S
Cd106       O302   2.066       .  S
Cd106      O1273   1.995   1_454  S
Cd107       O693   2.067       .  S
Cd107       O508   2.067   1_545  S
Cd107       O497   1.995   1_544  S
O108        C118   1.274       .  A
O108       Cd494   2.066   1_545  S
O109       Cd110   1.995   1_556  S
O109       Cd688   1.995   1_556  S
O109       Cd301   1.995   1_556  S
Cd110       O112   2.062   1_554  S
O111        C118   1.274       .  A
O111      Cd1271   2.067   1_455  S
C113        C130   1.461       .  S
C113        O117   1.273       .  A
C114        C186   1.461       .  S
O117       Zn492   2.020   1_545  S
C119        O120   1.274       .  A
O120       Cd301   2.067       .  S
C121        C122   1.411       .  A
C121        C708   1.411       .  A
C122        C123   1.402       .  A
C122        H127   1.084       .  S
C123        C124   1.398       .  A
C123        C145   1.490       .  S
C124        C707   1.398       .  A
C124        H128   1.078       .  S
C125        C126   1.402       .  A
C125       C1288   1.398   1_455  A
C125        C153   1.490       .  S
C126       C1285   1.411   1_455  A
C126        H129   1.084       .  S
C130        C135   1.405       .  A
C130        C713   1.405       .  A
C131        C132   1.402       .  A
C131       C1294   1.405   1_455  A
C131        H136   1.084       .  S
C132       C1297   1.400   1_455  A
C132        C156   1.489       .  S
C133        C134   1.400       .  A
C133        C714   1.400       .  A
C133        H137   1.078       .  S
C134        C135   1.402       .  A
C134        C148   1.489       .  S
C135        H138   1.084       .  S
C139        H140   1.112       .  S
C139        C145   1.534       .  S
C139        C144   1.534       .  S
C139        C143   1.534       .  S
C141        H142   1.112       .  S
C141        C147   1.534       .  S
C141        C146   1.534       .  S
C141        C148   1.534       .  S
C143        C170   1.490       .  S
C143        C146   1.387       .  D
C144        C161   1.490       .  S
C144        C147   1.387       .  D
C145        C148   1.387       .  D
C146        C181   1.489       .  S
C147        C190   1.489       .  S
C149        H150   1.112       .  S
C149        C155   1.534       .  S
C149        C154   1.534       .  S
C149        C153   1.534       .  S
C151        H152   1.112       .  S
C151        C157   1.534       .  S
C151        C156   1.534       .  S
C151        C158   1.534       .  S
C153        C156   1.387       .  D
C154        C172   1.490       .  S
C154        C157   1.387       .  D
C155        C163   1.490       .  S
C155        C158   1.387       .  D
C157        C179   1.489       .  S
C158        C188   1.489       .  S
C159        C164   1.411       .  A
C159        C354   1.411       .  A
C160        C161   1.402       .  A
C160        C547   1.411   1_545  A
C160        H165   1.084       .  S
C161        C550   1.398   1_545  A
C162        C163   1.398       .  A
C162        C355   1.398       .  A
C162        H166   1.078       .  S
C163        C164   1.402       .  A
C164        H167   1.084       .  S
C168        C169   1.411       .  A
C168        C173   1.411       .  A
C169        C170   1.402       .  A
C169        H174   1.084       .  S
C170        C171   1.398       .  A
C171        C172   1.398       .  A
C171        H175   1.078       .  S
C172        C173   1.402       .  A
C173        H176   1.084       .  S
C177        C178   1.405       .  A
C177        C182   1.405       .  A
C178        C179   1.402       .  A
C178        H183   1.084       .  S
C179        C180   1.400       .  A
C180        C181   1.400       .  A
C180        H184   1.078       .  S
C181        C182   1.402       .  A
C182        H185   1.084       .  S
C186        C187   1.405       .  A
C186        C385   1.405       .  A
C187        C188   1.402       .  A
C187        H192   1.084       .  S
C188        C189   1.400       .  A
C189        C384   1.400       .  A
C189        H193   1.078       .  S
C190        C191   1.402       .  A
C190        C577   1.400   1_545  A
C191        C574   1.405   1_545  A
C191        H194   1.084       .  S
C195        C196   1.411       .  A
C195        C200   1.411       .  A
C195        C312   1.480       .  S
C196        C197   1.402       .  A
C196        H201   1.084       .  S
C197        C198   1.398       .  A
C197        C210   1.490       .  S
C198        C199   1.398       .  A
C198        H202   1.078       .  S
C199        C200   1.402       .  A
C199        C219   1.490       .  S
C200        H203   1.084       .  S
C204        H205   1.112       .  S
C204        C210   1.534       .  S
C204        C209   1.534       .  S
C204        C208   1.534       .  S
C206        H207   1.112       .  S
C206        C212   1.534       .  S
C206        C211   1.534       .  S
C206        C213   1.534       .  S
C208        C235   1.490       .  S
C208        C211   1.387       .  D
C209        C226   1.490       .  S
C209        C212   1.387       .  D
C210        C213   1.387       .  D
C211        C253   1.489       .  S
C212        C244   1.489       .  S
C213        C262   1.489       .  S
C214        H215   1.112       .  S
C214        C220   1.534       .  S
C214        C219   1.534       .  S
C214        C218   1.534       .  S
C216        H217   1.112       .  S
C216        C222   1.534       .  S
C216        C221   1.534       .  S
C216        C223   1.534       .  S
C218        C228   1.490       .  S
C218        C221   1.387       .  D
C219        C222   1.387       .  D
C220        C237   1.490       .  S
C220        C223   1.387       .  D
C221        C246   1.489       .  S
C222        C264   1.489       .  S
C223        C255   1.489       .  S
C224        C225   1.411       .  A
C224        C811   1.411       .  A
C224        C310   1.480       .  S
C225        C226   1.402       .  A
C225        H230   1.084       .  S
C226        C227   1.398       .  A
C227        C810   1.398       .  A
C227        H231   1.078       .  S
C228       C1391   1.398   1_455  A
C228        C229   1.402       .  A
C229       C1388   1.411   1_455  A
C229        H232   1.084       .  S
C233        C428   1.411       .  A
C233        C238   1.411       .  A
C233        C313   1.480       .  S
C234        C235   1.402       .  A
C234        H239   1.084       .  S
C236        C429   1.398       .  A
C236        C237   1.398       .  A
C236        H240   1.078       .  S
C237        C238   1.402       .  A
C238        H241   1.084       .  S
C242        C243   1.405       .  A
C242        C829   1.405       .  A
C242        C270   1.461       .  S
C243        C244   1.402       .  A
C243        H248   1.084       .  S
C244        C245   1.400       .  A
C245        C828   1.400       .  A
C245        H249   1.078       .  S
C246       C1409   1.400   1_455  A
C246        C247   1.402       .  A
C247       C1406   1.405   1_455  A
C247        H250   1.084       .  S
C251        C446   1.405       .  A
C251        C256   1.405       .  A
C251        C284   1.461       .  S
C252        C253   1.402       .  A
C252        H257   1.084       .  S
C254        C447   1.400       .  A
C254        C255   1.400       .  A
C254        H258   1.078       .  S
C255        C256   1.402       .  A
C256        H259   1.084       .  S
C260        C261   1.405       .  A
C260        C265   1.405       .  A
C260        C285   1.461       .  S
C261        C262   1.402       .  A
C261        H266   1.084       .  S
C262        C263   1.400       .  A
C263        C264   1.400       .  A
C263        H267   1.078       .  S
C264        C265   1.402       .  A
C265        H268   1.084       .  S
O269        C285   1.273       .  A
O269      Zn1245   2.020   1_455  S
C270        O286   1.273       .  A
C270        O283   1.273       .  A
O271        C284   1.273       .  A
O271       Cd278   2.062       .  S
O272        C290   1.274       .  A
O272       Cd281   2.066       .  S
O273        C287   1.274       .  A
O273       Cd471   2.066       .  S
O274        C285   1.273       .  A
O274       Cd277   2.062       .  S
Zn275      O1045   2.020       .  S
Zn275       O286   2.020       .  S
Zn275       O288   2.020       .  S
Zn275       O280   1.953       .  S
O276        C287   1.274       .  A
O276      Cd1445   2.066   1_455  S
Cd277      O1443   2.066   1_455  S
Cd277      O1250   1.995   1_455  S
Cd278       O476   2.067       .  S
Cd278       O291   2.067       .  S
Cd278       O280   1.995       .  S
O279        C289   1.274       .  A
O279       Cd859   2.066       .  S
O280      Cd1053   1.995       .  S
O280       Cd281   1.995       .  S
Cd281       O858   2.066       .  S
Cd281       O283   2.062       .  S
O282        C289   1.274       .  A
C284        O288   1.273       .  A
C287        C353   1.480       .  S
C289        C315   1.480       .  S
C290        C362   1.480       .  S
C290        O291   1.274       .  A
O292        C308   1.273       .  A
O292      Zn1462   2.020   1_455  S
C293        C371   1.461       .  S
C293        O309   1.273       .  A
C293        O306   1.273       .  A
O294        C307   1.273       .  A
O294       Cd301   2.062   1_556  S
O295        C313   1.274       .  A
O295       Cd304   2.066       .  S
O296        C310   1.274       .  A
O296       Cd882   2.066       .  S
O297        C308   1.273       .  A
O297       Cd300   2.062   1_556  S
Zn298       O874   2.020       .  S
Zn298       O309   2.020       .  S
Zn298       O505   2.020       .  S
Zn298       O303   1.953       .  S
O299        C310   1.274       .  A
O299       Cd304   2.066       .  S
Cd300      O1460   2.066   1_455  S
Cd300       O496   2.066       .  S
Cd300      O1467   1.995   1_454  S
Cd301       O887   2.067       .  S
O302        C312   1.274       .  A
O303       Cd882   1.995   1_556  S
O303       Cd495   1.995   1_556  S
O303       Cd304   1.995   1_556  S
Cd304       O306   2.062   1_554  S
O305        C312   1.274       .  A
O305      Cd1465   2.067   1_455  S
C307        C324   1.461       .  S
C307        O311   1.273       .  A
C308        C380   1.461       .  S
C313        O314   1.274       .  A
O314       Cd495   2.067       .  S
C315        C316   1.411       .  A
C315        C902   1.411       .  A
C316        C317   1.402       .  A
C316        H321   1.084       .  S
C317        C318   1.398       .  A
C317        C339   1.490       .  S
C318        C901   1.398       .  A
C318        H322   1.078       .  S
C319       C1482   1.398   1_455  A
C319        C320   1.402       .  A
C319        C347   1.490       .  S
C320       C1479   1.411   1_455  A
C320        H323   1.084       .  S
C324        C907   1.405       .  A
C324        C329   1.405       .  A
C325       C1488   1.405   1_455  A
C325        C326   1.402       .  A
C325        H330   1.084       .  S
C326       C1491   1.400   1_455  A
C326        C350   1.489       .  S
C327        C908   1.400       .  A
C327        C328   1.400       .  A
C327        H331   1.078       .  S
C328        C329   1.402       .  A
C328        C342   1.489       .  S
C329        H332   1.084       .  S
C333        H334   1.112       .  S
C333        C339   1.534       .  S
C333        C338   1.534       .  S
C333        C337   1.534       .  S
C335        H336   1.112       .  S
C335        C341   1.534       .  S
C335        C340   1.534       .  S
C335        C342   1.534       .  S
C337        C364   1.490       .  S
C337        C340   1.387       .  D
C338        C355   1.490       .  S
C338        C341   1.387       .  D
C339        C342   1.387       .  D
C340        C375   1.489       .  S
C341        C384   1.489       .  S
C343        H344   1.112       .  S
C343        C349   1.534       .  S
C343        C348   1.534       .  S
C343        C347   1.534       .  S
C345        H346   1.112       .  S
C345        C351   1.534       .  S
C345        C350   1.534       .  S
C345        C352   1.534       .  S
C347        C350   1.387       .  D
C348        C366   1.490       .  S
C348        C351   1.387       .  D
C349        C357   1.490       .  S
C349        C352   1.387       .  D
C351        C373   1.489       .  S
C352        C382   1.489       .  S
C353        C548   1.411       .  A
C353        C358   1.411       .  A
C354        C355   1.402       .  A
C354        H359   1.084       .  S
C356        C549   1.398       .  A
C356        C357   1.398       .  A
C356        H360   1.078       .  S
C357        C358   1.402       .  A
C358        H361   1.084       .  S
C362        C363   1.411       .  A
C362        C367   1.411       .  A
C363        C364   1.402       .  A
C363        H368   1.084       .  S
C364        C365   1.398       .  A
C365        C366   1.398       .  A
C365        H369   1.078       .  S
C366        C367   1.402       .  A
C367        H370   1.084       .  S
C371        C372   1.405       .  A
C371        C376   1.405       .  A
C372        C373   1.402       .  A
C372        H377   1.084       .  S
C373        C374   1.400       .  A
C374        C375   1.400       .  A
C374        H378   1.078       .  S
C375        C376   1.402       .  A
C376        H379   1.084       .  S
C380        C381   1.405       .  A
C380        C579   1.405       .  A
C381        C382   1.402       .  A
C381        H386   1.084       .  S
C382        C383   1.400       .  A
C383        C578   1.400       .  A
C383        H387   1.078       .  S
C384        C385   1.402       .  A
C385        H388   1.084       .  S
C389        C390   1.411       .  A
C389        C394   1.411       .  A
C389        C506   1.480       .  S
C390        C391   1.402       .  A
C390        H395   1.084       .  S
C391        C392   1.398       .  A
C391        C404   1.490       .  S
C392        C393   1.398       .  A
C392        H396   1.078       .  S
C393        C394   1.402       .  A
C393        C413   1.490       .  S
C394        H397   1.084       .  S
C398        H399   1.112       .  S
C398        C404   1.534       .  S
C398        C403   1.534       .  S
C398        C402   1.534       .  S
C400        H401   1.112       .  S
C400        C406   1.534       .  S
C400        C405   1.534       .  S
C400        C407   1.534       .  S
C402        C429   1.490       .  S
C402        C405   1.387       .  D
C403        C420   1.490       .  S
C403        C406   1.387       .  D
C404        C407   1.387       .  D
C405        C447   1.489       .  S
C406        C438   1.489       .  S
C407        C456   1.489       .  S
C408        H409   1.112       .  S
C408        C414   1.534       .  S
C408        C413   1.534       .  S
C408        C412   1.534       .  S
C410        H411   1.112       .  S
C410        C416   1.534       .  S
C410        C415   1.534       .  S
C410        C417   1.534       .  S
C412        C422   1.490       .  S
C412        C415   1.387       .  D
C413        C416   1.387       .  D
C414        C431   1.490       .  S
C414        C417   1.387       .  D
C415        C440   1.489       .  S
C416        C458   1.489       .  S
C417        C449   1.489       .  S
C418        C419   1.411       .  A
C418       C1005   1.411       .  A
C418        C504   1.480       .  S
C419        C420   1.402       .  A
C419        H424   1.084       .  S
C420        C421   1.398       .  A
C421       C1004   1.398       .  A
C421        H425   1.078       .  S
C422       C1585   1.398   1_455  A
C422        C423   1.402       .  A
C423       C1582   1.411   1_455  A
C423        H426   1.084       .  S
C427        C432   1.411       .  A
C427        C507   1.480       .  S
C428        C429   1.402       .  A
C428        H433   1.084       .  S
C430        C431   1.398       .  A
C430        H434   1.078       .  S
C431        C432   1.402       .  A
C432        H435   1.084       .  S
C436        C437   1.405       .  A
C436       C1023   1.405       .  A
C436        C464   1.461       .  S
C437        C438   1.402       .  A
C437        H442   1.084       .  S
C438        C439   1.400       .  A
C439       C1022   1.400       .  A
C439        H443   1.078       .  S
C440       C1603   1.400   1_455  A
C440        C441   1.402       .  A
C441       C1600   1.405   1_455  A
C441        H444   1.084       .  S
C445        C450   1.405       .  A
C445        C478   1.461       .  S
C446        C447   1.402       .  A
C446        H451   1.084       .  S
C448        C449   1.400       .  A
C448        H452   1.078       .  S
C449        C450   1.402       .  A
C450        H453   1.084       .  S
C454        C455   1.405       .  A
C454        C459   1.405       .  A
C454        C479   1.461       .  S
C455        C456   1.402       .  A
C455        H460   1.084       .  S
C456        C457   1.400       .  A
C457        C458   1.400       .  A
C457        H461   1.078       .  S
C458        C459   1.402       .  A
C459        H462   1.084       .  S
O463        C479   1.273       .  A
O463      Zn1439   2.020   1_455  S
C464        O480   1.273       .  A
C464        O477   1.273       .  A
O465        C478   1.273       .  A
O465       Cd472   2.062       .  S
O466        C484   1.274       .  A
O466       Cd475   2.066       .  S
O467        C481   1.274       .  A
O468        C479   1.273       .  A
O468       Cd471   2.062       .  S
Zn469       O657   2.020   1_565  S
Zn469       O480   2.020       .  S
Zn469       O482   2.020       .  S
Zn469       O474   1.953       .  S
O470        C481   1.274       .  A
O470      Cd1639   2.066   1_455  S
Cd471      O1637   2.066   1_455  S
Cd471      O1444   1.995   1_455  S
Cd472       O485   2.067       .  S
Cd472       O474   1.995       .  S
O473        C483   1.274       .  A
O473      Cd1053   2.066       .  S
O474       Cd665   1.995   1_565  S
O474       Cd475   1.995       .  S
Cd475      O1052   2.066       .  S
Cd475       O477   2.062       .  S
O476        C483   1.274       .  A
C478        O482   1.273       .  A
C481        C547   1.480       .  S
C483        C509   1.480       .  S
C484        C556   1.480       .  S
C484        O485   1.274       .  A
O486        C502   1.273       .  A
O486      Zn1656   2.020   1_455  S
C487        C565   1.461       .  S
C487        O503   1.273       .  A
C487        O500   1.273       .  A
O488        C501   1.273       .  A
O488       Cd495   2.062   1_556  S
O489        C507   1.274       .  A
O489       Cd498   2.066       .  S
O490        C504   1.274       .  A
O490      Cd1076   2.066       .  S
O491        C502   1.273       .  A
O491       Cd494   2.062   1_556  S
Zn492      O1068   2.020       .  S
Zn492       O503   2.020       .  S
Zn492       O497   1.953       .  S
O493        C504   1.274       .  A
O493       Cd498   2.066       .  S
Cd494      O1654   2.066   1_455  S
Cd494      O1661   1.995   1_454  S
Cd495      O1081   2.067       .  S
O496        C506   1.274       .  A
O497      Cd1076   1.995   1_556  S
O497       Cd498   1.995   1_556  S
Cd498       O500   2.062   1_554  S
O499        C506   1.274       .  A
O499      Cd1659   2.067   1_455  S
C501        C518   1.461       .  S
C501        O505   1.273       .  A
C502        C574   1.461       .  S
C507        O508   1.274       .  A
C509        C510   1.411       .  A
C509       C1096   1.411       .  A
C510        C511   1.402       .  A
C510        H515   1.084       .  S
C511        C512   1.398       .  A
C511        C533   1.490       .  S
C512       C1095   1.398       .  A
C512        H516   1.078       .  S
C513       C1676   1.398   1_455  A
C513        C514   1.402       .  A
C513        C541   1.490       .  S
C514       C1673   1.411   1_455  A
C514        H517   1.084       .  S
C518       C1101   1.405       .  A
C518        C523   1.405       .  A
C519       C1682   1.405   1_455  A
C519        C520   1.402       .  A
C519        H524   1.084       .  S
C520       C1685   1.400   1_455  A
C520        C544   1.489       .  S
C521       C1102   1.400       .  A
C521        C522   1.400       .  A
C521        H525   1.078       .  S
C522        C523   1.402       .  A
C522        C536   1.489       .  S
C523        H526   1.084       .  S
C527        H528   1.112       .  S
C527        C533   1.534       .  S
C527        C532   1.534       .  S
C527        C531   1.534       .  S
C529        H530   1.112       .  S
C529        C535   1.534       .  S
C529        C534   1.534       .  S
C529        C536   1.534       .  S
C531        C558   1.490       .  S
C531        C534   1.387       .  D
C532        C549   1.490       .  S
C532        C535   1.387       .  D
C533        C536   1.387       .  D
C534        C569   1.489       .  S
C535        C578   1.489       .  S
C537        H538   1.112       .  S
C537        C543   1.534       .  S
C537        C542   1.534       .  S
C537        C541   1.534       .  S
C539        H540   1.112       .  S
C539        C545   1.534       .  S
C539        C544   1.534       .  S
C539        C546   1.534       .  S
C541        C544   1.387       .  D
C542        C560   1.490       .  S
C542        C545   1.387       .  D
C543        C551   1.490       .  S
C543        C546   1.387       .  D
C545        C567   1.489       .  S
C546        C576   1.489       .  S
C547        C552   1.411       .  A
C548        C549   1.402       .  A
C548        H553   1.084       .  S
C550        C551   1.398       .  A
C550        H554   1.078       .  S
C551        C552   1.402       .  A
C552        H555   1.084       .  S
C556        C557   1.411       .  A
C556        C561   1.411       .  A
C557        C558   1.402       .  A
C557        H562   1.084       .  S
C558        C559   1.398       .  A
C559        C560   1.398       .  A
C559        H563   1.078       .  S
C560        C561   1.402       .  A
C561        H564   1.084       .  S
C565        C566   1.405       .  A
C565        C570   1.405       .  A
C566        C567   1.402       .  A
C566        H571   1.084       .  S
C567        C568   1.400       .  A
C568        C569   1.400       .  A
C568        H572   1.078       .  S
C569        C570   1.402       .  A
C570        H573   1.084       .  S
C574        C575   1.405       .  A
C575        C576   1.402       .  A
C575        H580   1.084       .  S
C576        C577   1.400       .  A
C577        H581   1.078       .  S
C578        C579   1.402       .  A
C579        H582   1.084       .  S
C583        C584   1.411       .  A
C583        C588   1.411       .  A
C583        C700   1.480       .  S
C584        C585   1.402       .  A
C584        H589   1.084       .  S
C585        C586   1.398       .  A
C585        C598   1.490       .  S
C586        C587   1.398       .  A
C586        H590   1.078       .  S
C587        C588   1.402       .  A
C587        C607   1.490       .  S
C588        H591   1.084       .  S
C592        H593   1.112       .  S
C592        C598   1.534       .  S
C592        C597   1.534       .  S
C592        C596   1.534       .  S
C594        H595   1.112       .  S
C594        C600   1.534       .  S
C594        C599   1.534       .  S
C594        C601   1.534       .  S
C596        C623   1.490       .  S
C596        C599   1.387       .  D
C597        C614   1.490       .  S
C597        C600   1.387       .  D
C598        C601   1.387       .  D
C599        C641   1.489       .  S
C600        C632   1.489       .  S
C601        C650   1.489       .  S
C602        H603   1.112       .  S
C602        C608   1.534       .  S
C602        C607   1.534       .  S
C602        C606   1.534       .  S
C604        H605   1.112       .  S
C604        C610   1.534       .  S
C604        C609   1.534       .  S
C604        C611   1.534       .  S
C606        C616   1.490       .  S
C606        C609   1.387       .  D
C607        C610   1.387       .  D
C608        C625   1.490       .  S
C608        C611   1.387       .  D
C609        C634   1.489       .  S
C610        C652   1.489       .  S
C611        C643   1.489       .  S
C612        C613   1.411       .  A
C612       C1199   1.411       .  A
C612        C698   1.480       .  S
C613        C614   1.402       .  A
C613        H618   1.084       .  S
C614        C615   1.398       .  A
C615       C1198   1.398       .  A
C615        H619   1.078       .  S
C616        C617   1.402       .  A
C617        H620   1.084       .  S
C621        C816   1.411       .  A
C621        C626   1.411       .  A
C621        C701   1.480       .  S
C622       C1009   1.411   1_545  A
C622        C623   1.402       .  A
C622        H627   1.084       .  S
C623       C1012   1.398   1_545  A
C624        C817   1.398       .  A
C624        C625   1.398       .  A
C624        H628   1.078       .  S
C625        C626   1.402       .  A
C626        H629   1.084       .  S
C630        C631   1.405       .  A
C630       C1217   1.405       .  A
C630        C658   1.461       .  S
C631        C632   1.402       .  A
C631        H636   1.084       .  S
C632        C633   1.400       .  A
C633       C1216   1.400       .  A
C633        H637   1.078       .  S
C634        C635   1.402       .  A
C635        H638   1.084       .  S
C639        C834   1.405       .  A
C639        C644   1.405       .  A
C639        C672   1.461       .  S
C640       C1027   1.405   1_545  A
C640        C641   1.402       .  A
C640        H645   1.084       .  S
C641       C1030   1.400   1_545  A
C642        C835   1.400       .  A
C642        C643   1.400       .  A
C642        H646   1.078       .  S
C643        C644   1.402       .  A
C644        H647   1.084       .  S
C648        C649   1.405       .  A
C648        C653   1.405       .  A
C648        C673   1.461       .  S
C649        C650   1.402       .  A
C649        H654   1.084       .  S
C650        C651   1.400       .  A
C651        C652   1.400       .  A
C651        H655   1.078       .  S
C652        C653   1.402       .  A
C653        H656   1.084       .  S
O657        C673   1.273       .  A
C658        O674   1.273       .  A
C658        O671   1.273       .  A
O659        C672   1.273       .  A
O659       Cd666   2.062       .  S
O660        C678   1.274       .  A
O660       Cd669   2.066       .  S
O661        C675   1.274       .  A
O661       Cd859   2.066       .  S
O662        C673   1.273       .  A
O662       Cd665   2.062       .  S
Zn663      O1433   2.020       .  S
Zn663       O674   2.020       .  S
Zn663       O676   2.020       .  S
Zn663       O668   1.953       .  S
O664        C675   1.274       .  A
Cd665      O1049   2.066   1_545  S
Cd666       O864   2.067       .  S
Cd666       O679   2.067       .  S
Cd666       O668   1.995       .  S
O667        C677   1.274       .  A
O667      Cd1247   2.066       .  S
O668      Cd1441   1.995       .  S
O668       Cd669   1.995       .  S
Cd669      O1246   2.066       .  S
Cd669       O671   2.062       .  S
O670        C677   1.274       .  A
O670      Cd1054   2.067   1_545  S
C672        O676   1.273       .  A
C675        C741   1.480       .  S
C677        C703   1.480       .  S
C678        C750   1.480       .  S
C678        O679   1.274       .  A
O680        C696   1.273       .  A
C681        C759   1.461       .  S
C681        O697   1.273       .  A
C681        O694   1.273       .  A
O682        C695   1.273       .  A
O682       Cd689   2.062   1_556  S
O683        C701   1.274       .  A
O683       Cd692   2.066       .  S
O684        C698   1.274       .  A
O684      Cd1270   2.066       .  S
O685        C696   1.273       .  A
O685       Cd688   2.062   1_556  S
Zn686      O1262   2.020       .  S
Zn686       O697   2.020       .  S
Zn686       O893   2.020       .  S
Zn686       O691   1.953       .  S
O687        C698   1.274       .  A
O687       Cd692   2.066       .  S
Cd688       O884   2.066       .  S
Cd689      O1275   2.067       .  S
Cd689      O1090   2.067   1_545  S
Cd689      O1079   1.995   1_544  S
O690        C700   1.274       .  A
O690      Cd1076   2.066   1_545  S
O691      Cd1270   1.995   1_556  S
O691       Cd883   1.995   1_556  S
O691       Cd692   1.995   1_556  S
Cd692       O694   2.062   1_554  S
O693        C700   1.274       .  A
C695        C712   1.461       .  S
C695        O699   1.273       .  A
C696        C768   1.461       .  S
O699      Zn1074   2.020   1_545  S
C701        O702   1.274       .  A
O702       Cd883   2.067       .  S
C703        C704   1.411       .  A
C703       C1290   1.411       .  A
C704        C705   1.402       .  A
C704        H709   1.084       .  S
C705        C706   1.398       .  A
C705        C727   1.490       .  S
C706       C1289   1.398       .  A
C706        H710   1.078       .  S
C707        C708   1.402       .  A
C707        C735   1.490       .  S
C708        H711   1.084       .  S
C712       C1295   1.405       .  A
C712        C717   1.405       .  A
C713        C714   1.402       .  A
C713        H718   1.084       .  S
C714        C738   1.489       .  S
C715       C1296   1.400       .  A
C715        C716   1.400       .  A
C715        H719   1.078       .  S
C716        C717   1.402       .  A
C716        C730   1.489       .  S
C717        H720   1.084       .  S
C721        H722   1.112       .  S
C721        C727   1.534       .  S
C721        C726   1.534       .  S
C721        C725   1.534       .  S
C723        H724   1.112       .  S
C723        C729   1.534       .  S
C723        C728   1.534       .  S
C723        C730   1.534       .  S
C725        C752   1.490       .  S
C725        C728   1.387       .  D
C726        C743   1.490       .  S
C726        C729   1.387       .  D
C727        C730   1.387       .  D
C728        C763   1.489       .  S
C729        C772   1.489       .  S
C731        H732   1.112       .  S
C731        C737   1.534       .  S
C731        C736   1.534       .  S
C731        C735   1.534       .  S
C733        H734   1.112       .  S
C733        C739   1.534       .  S
C733        C738   1.534       .  S
C733        C740   1.534       .  S
C735        C738   1.387       .  D
C736        C754   1.490       .  S
C736        C739   1.387       .  D
C737        C745   1.490       .  S
C737        C740   1.387       .  D
C739        C761   1.489       .  S
C740        C770   1.489       .  S
C741        C936   1.411       .  A
C741        C746   1.411       .  A
C742       C1129   1.411   1_545  A
C742        C743   1.402       .  A
C742        H747   1.084       .  S
C743       C1132   1.398   1_545  A
C744        C937   1.398       .  A
C744        C745   1.398       .  A
C744        H748   1.078       .  S
C745        C746   1.402       .  A
C746        H749   1.084       .  S
C750        C751   1.411       .  A
C750        C755   1.411       .  A
C751        C752   1.402       .  A
C751        H756   1.084       .  S
C752        C753   1.398       .  A
C753        C754   1.398       .  A
C753        H757   1.078       .  S
C754        C755   1.402       .  A
C755        H758   1.084       .  S
C759        C760   1.405       .  A
C759        C764   1.405       .  A
C760        C761   1.402       .  A
C760        H765   1.084       .  S
C761        C762   1.400       .  A
C762        C763   1.400       .  A
C762        H766   1.078       .  S
C763        C764   1.402       .  A
C764        H767   1.084       .  S
C768        C769   1.405       .  A
C768        C967   1.405       .  A
C769        C770   1.402       .  A
C769        H774   1.084       .  S
C770        C771   1.400       .  A
C771        C966   1.400       .  A
C771        H775   1.078       .  S
C772       C1159   1.400   1_545  A
C772        C773   1.402       .  A
C773       C1156   1.405   1_545  A
C773        H776   1.084       .  S
C777        C778   1.411       .  A
C777        C782   1.411       .  A
C777        C894   1.480       .  S
C778        C779   1.402       .  A
C778        H783   1.084       .  S
C779        C780   1.398       .  A
C779        C792   1.490       .  S
C780        C781   1.398       .  A
C780        H784   1.078       .  S
C781        C782   1.402       .  A
C781        C801   1.490       .  S
C782        H785   1.084       .  S
C786        H787   1.112       .  S
C786        C792   1.534       .  S
C786        C791   1.534       .  S
C786        C790   1.534       .  S
C788        H789   1.112       .  S
C788        C794   1.534       .  S
C788        C793   1.534       .  S
C788        C795   1.534       .  S
C790        C817   1.490       .  S
C790        C793   1.387       .  D
C791        C808   1.490       .  S
C791        C794   1.387       .  D
C792        C795   1.387       .  D
C793        C835   1.489       .  S
C794        C826   1.489       .  S
C795        C844   1.489       .  S
C796        H797   1.112       .  S
C796        C802   1.534       .  S
C796        C801   1.534       .  S
C796        C800   1.534       .  S
C798        H799   1.112       .  S
C798        C804   1.534       .  S
C798        C803   1.534       .  S
C798        C805   1.534       .  S
C800        C810   1.490       .  S
C800        C803   1.387       .  D
C801        C804   1.387       .  D
C802        C819   1.490       .  S
C802        C805   1.387       .  D
C803        C828   1.489       .  S
C804        C846   1.489       .  S
C805        C837   1.489       .  S
C806        C807   1.411       .  A
C806       C1393   1.411       .  A
C806        C892   1.480       .  S
C807        C808   1.402       .  A
C807        H812   1.084       .  S
C808        C809   1.398       .  A
C809       C1392   1.398       .  A
C809        H813   1.078       .  S
C810        C811   1.402       .  A
C811        H814   1.084       .  S
C815       C1010   1.411       .  A
C815        C820   1.411       .  A
C815        C895   1.480       .  S
C816        C817   1.402       .  A
C816        H821   1.084       .  S
C818       C1011   1.398       .  A
C818        C819   1.398       .  A
C818        H822   1.078       .  S
C819        C820   1.402       .  A
C820        H823   1.084       .  S
C824        C825   1.405       .  A
C824       C1411   1.405       .  A
C824        C852   1.461       .  S
C825        C826   1.402       .  A
C825        H830   1.084       .  S
C826        C827   1.400       .  A
C827       C1410   1.400       .  A
C827        H831   1.078       .  S
C828        C829   1.402       .  A
C829        H832   1.084       .  S
C833       C1028   1.405       .  A
C833        C838   1.405       .  A
C833        C866   1.461       .  S
C834        C835   1.402       .  A
C834        H839   1.084       .  S
C836       C1029   1.400       .  A
C836        C837   1.400       .  A
C836        H840   1.078       .  S
C837        C838   1.402       .  A
C838        H841   1.084       .  S
C842        C843   1.405       .  A
C842        C847   1.405       .  A
C842        C867   1.461       .  S
C843        C844   1.402       .  A
C843        H848   1.084       .  S
C844        C845   1.400       .  A
C845        C846   1.400       .  A
C845        H849   1.078       .  S
C846        C847   1.402       .  A
C847        H850   1.084       .  S
O851        C867   1.273       .  A
C852        O868   1.273       .  A
C852        O865   1.273       .  A
O853        C866   1.273       .  A
O853       Cd860   2.062       .  S
O854        C872   1.274       .  A
O854       Cd863   2.066       .  S
O855        C869   1.274       .  A
O855      Cd1053   2.066       .  S
O856        C867   1.273       .  A
O856       Cd859   2.062       .  S
Zn857      O1627   2.020       .  S
Zn857       O868   2.020       .  S
Zn857       O870   2.020       .  S
Zn857       O862   1.953       .  S
O858        C869   1.274       .  A
Cd860      O1058   2.067       .  S
Cd860       O873   2.067       .  S
Cd860       O862   1.995       .  S
O861        C871   1.274       .  A
O861      Cd1441   2.066       .  S
O862      Cd1635   1.995       .  S
O862       Cd863   1.995       .  S
Cd863      O1440   2.066       .  S
Cd863       O865   2.062       .  S
O864        C871   1.274       .  A
C866        O870   1.273       .  A
C869        C935   1.480       .  S
C871        C897   1.480       .  S
C872        C944   1.480       .  S
C872        O873   1.274       .  A
O874        C890   1.273       .  A
C875        C953   1.461       .  S
C875        O891   1.273       .  A
C875        O888   1.273       .  A
O876        C889   1.273       .  A
O876       Cd883   2.062   1_556  S
O877        C895   1.274       .  A
O877       Cd886   2.066       .  S
O878        C892   1.274       .  A
O878      Cd1464   2.066       .  S
O879        C890   1.273       .  A
O879       Cd882   2.062   1_556  S
Zn880      O1456   2.020       .  S
Zn880       O891   2.020       .  S
Zn880      O1087   2.020       .  S
Zn880       O885   1.953       .  S
O881        C892   1.274       .  A
O881       Cd886   2.066       .  S
Cd882      O1078   2.066       .  S
Cd883      O1469   2.067       .  S
O884        C894   1.274       .  A
O885      Cd1464   1.995   1_556  S
O885      Cd1077   1.995   1_556  S
O885       Cd886   1.995   1_556  S
Cd886       O888   2.062   1_554  S
O887        C894   1.274       .  A
C889        C906   1.461       .  S
C889        O893   1.273       .  A
C890        C962   1.461       .  S
C895        O896   1.274       .  A
O896      Cd1077   2.067       .  S
C897        C898   1.411       .  A
C897       C1484   1.411       .  A
C898        C899   1.402       .  A
C898        H903   1.084       .  S
C899        C900   1.398       .  A
C899        C921   1.490       .  S
C900       C1483   1.398       .  A
C900        H904   1.078       .  S
C901        C902   1.402       .  A
C901        C929   1.490       .  S
C902        H905   1.084       .  S
C906       C1489   1.405       .  A
C906        C911   1.405       .  A
C907        C908   1.402       .  A
C907        H912   1.084       .  S
C908        C932   1.489       .  S
C909       C1490   1.400       .  A
C909        C910   1.400       .  A
C909        H913   1.078       .  S
C910        C911   1.402       .  A
C910        C924   1.489       .  S
C911        H914   1.084       .  S
C915        H916   1.112       .  S
C915        C921   1.534       .  S
C915        C920   1.534       .  S
C915        C919   1.534       .  S
C917        H918   1.112       .  S
C917        C923   1.534       .  S
C917        C922   1.534       .  S
C917        C924   1.534       .  S
C919        C946   1.490       .  S
C919        C922   1.387       .  D
C920        C937   1.490       .  S
C920        C923   1.387       .  D
C921        C924   1.387       .  D
C922        C957   1.489       .  S
C923        C966   1.489       .  S
C925        H926   1.112       .  S
C925        C931   1.534       .  S
C925        C930   1.534       .  S
C925        C929   1.534       .  S
C927        H928   1.112       .  S
C927        C933   1.534       .  S
C927        C932   1.534       .  S
C927        C934   1.534       .  S
C929        C932   1.387       .  D
C930        C948   1.490       .  S
C930        C933   1.387       .  D
C931        C939   1.490       .  S
C931        C934   1.387       .  D
C933        C955   1.489       .  S
C934        C964   1.489       .  S
C935       C1130   1.411       .  A
C935        C940   1.411       .  A
C936        C937   1.402       .  A
C936        H941   1.084       .  S
C938       C1131   1.398       .  A
C938        C939   1.398       .  A
C938        H942   1.078       .  S
C939        C940   1.402       .  A
C940        H943   1.084       .  S
C944        C945   1.411       .  A
C944        C949   1.411       .  A
C945        C946   1.402       .  A
C945        H950   1.084       .  S
C946        C947   1.398       .  A
C947        C948   1.398       .  A
C947        H951   1.078       .  S
C948        C949   1.402       .  A
C949        H952   1.084       .  S
C953        C954   1.405       .  A
C953        C958   1.405       .  A
C954        C955   1.402       .  A
C954        H959   1.084       .  S
C955        C956   1.400       .  A
C956        C957   1.400       .  A
C956        H960   1.078       .  S
C957        C958   1.402       .  A
C958        H961   1.084       .  S
C962        C963   1.405       .  A
C962       C1161   1.405       .  A
C963        C964   1.402       .  A
C963        H968   1.084       .  S
C964        C965   1.400       .  A
C965       C1160   1.400       .  A
C965        H969   1.078       .  S
C966        C967   1.402       .  A
C967        H970   1.084       .  S
C971        C972   1.411       .  A
C971        C976   1.411       .  A
C971       C1088   1.480       .  S
C972        C973   1.402       .  A
C972        H977   1.084       .  S
C973        C974   1.398       .  A
C973        C986   1.490       .  S
C974        C975   1.398       .  A
C974        H978   1.078       .  S
C975        C976   1.402       .  A
C975        C995   1.490       .  S
C976        H979   1.084       .  S
C980        H981   1.112       .  S
C980        C986   1.534       .  S
C980        C985   1.534       .  S
C980        C984   1.534       .  S
C982        H983   1.112       .  S
C982        C988   1.534       .  S
C982        C987   1.534       .  S
C982        C989   1.534       .  S
C984       C1011   1.490       .  S
C984        C987   1.387       .  D
C985       C1002   1.490       .  S
C985        C988   1.387       .  D
C986        C989   1.387       .  D
C987       C1029   1.489       .  S
C988       C1020   1.489       .  S
C989       C1038   1.489       .  S
C990        H991   1.112       .  S
C990        C996   1.534       .  S
C990        C995   1.534       .  S
C990        C994   1.534       .  S
C992        H993   1.112       .  S
C992        C998   1.534       .  S
C992        C997   1.534       .  S
C992        C999   1.534       .  S
C994       C1004   1.490       .  S
C994        C997   1.387       .  D
C995        C998   1.387       .  D
C996       C1013   1.490       .  S
C996        C999   1.387       .  D
C997       C1022   1.489       .  S
C998       C1040   1.489       .  S
C999       C1031   1.489       .  S
C1000      C1001   1.411       .  A
C1000      C1587   1.411       .  A
C1000      C1086   1.480       .  S
C1001      C1002   1.402       .  A
C1001      H1006   1.084       .  S
C1002      C1003   1.398       .  A
C1003      C1586   1.398       .  A
C1003      H1007   1.078       .  S
C1004      C1005   1.402       .  A
C1005      H1008   1.084       .  S
C1009      C1014   1.411       .  A
C1009      C1089   1.480       .  S
C1010      C1011   1.402       .  A
C1010      H1015   1.084       .  S
C1012      C1013   1.398       .  A
C1012      H1016   1.078       .  S
C1013      C1014   1.402       .  A
C1014      H1017   1.084       .  S
C1018      C1019   1.405       .  A
C1018      C1605   1.405       .  A
C1018      C1046   1.461       .  S
C1019      C1020   1.402       .  A
C1019      H1024   1.084       .  S
C1020      C1021   1.400       .  A
C1021      C1604   1.400       .  A
C1021      H1025   1.078       .  S
C1022      C1023   1.402       .  A
C1023      H1026   1.084       .  S
C1027      C1032   1.405       .  A
C1027      C1060   1.461       .  S
C1028      C1029   1.402       .  A
C1028      H1033   1.084       .  S
C1030      C1031   1.400       .  A
C1030      H1034   1.078       .  S
C1031      C1032   1.402       .  A
C1032      H1035   1.084       .  S
C1036      C1037   1.405       .  A
C1036      C1041   1.405       .  A
C1036      C1061   1.461       .  S
C1037      C1038   1.402       .  A
C1037      H1042   1.084       .  S
C1038      C1039   1.400       .  A
C1039      C1040   1.400       .  A
C1039      H1043   1.078       .  S
C1040      C1041   1.402       .  A
C1041      H1044   1.084       .  S
O1045      C1061   1.273       .  A
C1046      O1062   1.273       .  A
C1046      O1059   1.273       .  A
O1047      C1060   1.273       .  A
O1047     Cd1054   2.062       .  S
O1048      C1066   1.274       .  A
O1048     Cd1057   2.066       .  S
O1049      C1063   1.274       .  A
O1050      C1061   1.273       .  A
O1050     Cd1053   2.062       .  S
Zn1051     O1239   2.020   1_565  S
Zn1051     O1062   2.020       .  S
Zn1051     O1064   2.020       .  S
Zn1051     O1056   1.953       .  S
O1052      C1063   1.274       .  A
Cd1054     O1067   2.067       .  S
Cd1054     O1056   1.995       .  S
O1055      C1065   1.274       .  A
O1055     Cd1635   2.066       .  S
O1056     Cd1247   1.995   1_565  S
O1056     Cd1057   1.995       .  S
Cd1057     O1634   2.066       .  S
Cd1057     O1059   2.062       .  S
O1058      C1065   1.274       .  A
C1060      O1064   1.273       .  A
C1063      C1129   1.480       .  S
C1065      C1091   1.480       .  S
C1066      C1138   1.480       .  S
C1066      O1067   1.274       .  A
O1068      C1084   1.273       .  A
C1069      C1147   1.461       .  S
C1069      O1085   1.273       .  A
C1069      O1082   1.273       .  A
O1070      C1083   1.273       .  A
O1070     Cd1077   2.062   1_556  S
O1071      C1089   1.274       .  A
O1071     Cd1080   2.066       .  S
O1072      C1086   1.274       .  A
O1072     Cd1658   2.066       .  S
O1073      C1084   1.273       .  A
O1073     Cd1076   2.062   1_556  S
Zn1074     O1650   2.020       .  S
Zn1074     O1085   2.020       .  S
Zn1074     O1079   1.953       .  S
O1075      C1086   1.274       .  A
O1075     Cd1080   2.066       .  S
Cd1077     O1663   2.067       .  S
O1078      C1088   1.274       .  A
O1079     Cd1658   1.995   1_556  S
O1079     Cd1080   1.995   1_556  S
Cd1080     O1082   2.062   1_554  S
O1081      C1088   1.274       .  A
C1083      C1100   1.461       .  S
C1083      O1087   1.273       .  A
C1084      C1156   1.461       .  S
C1089      O1090   1.274       .  A
C1091      C1092   1.411       .  A
C1091      C1678   1.411       .  A
C1092      C1093   1.402       .  A
C1092      H1097   1.084       .  S
C1093      C1094   1.398       .  A
C1093      C1115   1.490       .  S
C1094      C1677   1.398       .  A
C1094      H1098   1.078       .  S
C1095      C1096   1.402       .  A
C1095      C1123   1.490       .  S
C1096      H1099   1.084       .  S
C1100      C1683   1.405       .  A
C1100      C1105   1.405       .  A
C1101      C1102   1.402       .  A
C1101      H1106   1.084       .  S
C1102      C1126   1.489       .  S
C1103      C1684   1.400       .  A
C1103      C1104   1.400       .  A
C1103      H1107   1.078       .  S
C1104      C1105   1.402       .  A
C1104      C1118   1.489       .  S
C1105      H1108   1.084       .  S
C1109      H1110   1.112       .  S
C1109      C1115   1.534       .  S
C1109      C1114   1.534       .  S
C1109      C1113   1.534       .  S
C1111      H1112   1.112       .  S
C1111      C1117   1.534       .  S
C1111      C1116   1.534       .  S
C1111      C1118   1.534       .  S
C1113      C1140   1.490       .  S
C1113      C1116   1.387       .  D
C1114      C1131   1.490       .  S
C1114      C1117   1.387       .  D
C1115      C1118   1.387       .  D
C1116      C1151   1.489       .  S
C1117      C1160   1.489       .  S
C1119      H1120   1.112       .  S
C1119      C1125   1.534       .  S
C1119      C1124   1.534       .  S
C1119      C1123   1.534       .  S
C1121      H1122   1.112       .  S
C1121      C1127   1.534       .  S
C1121      C1126   1.534       .  S
C1121      C1128   1.534       .  S
C1123      C1126   1.387       .  D
C1124      C1142   1.490       .  S
C1124      C1127   1.387       .  D
C1125      C1133   1.490       .  S
C1125      C1128   1.387       .  D
C1127      C1149   1.489       .  S
C1128      C1158   1.489       .  S
C1129      C1134   1.411       .  A
C1130      C1131   1.402       .  A
C1130      H1135   1.084       .  S
C1132      C1133   1.398       .  A
C1132      H1136   1.078       .  S
C1133      C1134   1.402       .  A
C1134      H1137   1.084       .  S
C1138      C1139   1.411       .  A
C1138      C1143   1.411       .  A
C1139      C1140   1.402       .  A
C1139      H1144   1.084       .  S
C1140      C1141   1.398       .  A
C1141      C1142   1.398       .  A
C1141      H1145   1.078       .  S
C1142      C1143   1.402       .  A
C1143      H1146   1.084       .  S
C1147      C1148   1.405       .  A
C1147      C1152   1.405       .  A
C1148      C1149   1.402       .  A
C1148      H1153   1.084       .  S
C1149      C1150   1.400       .  A
C1150      C1151   1.400       .  A
C1150      H1154   1.078       .  S
C1151      C1152   1.402       .  A
C1152      H1155   1.084       .  S
C1156      C1157   1.405       .  A
C1157      C1158   1.402       .  A
C1157      H1162   1.084       .  S
C1158      C1159   1.400       .  A
C1159      H1163   1.078       .  S
C1160      C1161   1.402       .  A
C1161      H1164   1.084       .  S
C1165      C1166   1.411       .  A
C1165      C1170   1.411       .  A
C1165      C1282   1.480       .  S
C1166      C1167   1.402       .  A
C1166      H1171   1.084       .  S
C1167      C1168   1.398       .  A
C1167      C1180   1.490       .  S
C1168      C1169   1.398       .  A
C1168      H1172   1.078       .  S
C1169      C1170   1.402       .  A
C1169      C1189   1.490       .  S
C1170      H1173   1.084       .  S
C1174      H1175   1.112       .  S
C1174      C1180   1.534       .  S
C1174      C1179   1.534       .  S
C1174      C1178   1.534       .  S
C1176      H1177   1.112       .  S
C1176      C1182   1.534       .  S
C1176      C1181   1.534       .  S
C1176      C1183   1.534       .  S
C1178      C1205   1.490       .  S
C1178      C1181   1.387       .  D
C1179      C1196   1.490       .  S
C1179      C1182   1.387       .  D
C1180      C1183   1.387       .  D
C1181      C1223   1.489       .  S
C1182      C1214   1.489       .  S
C1183      C1232   1.489       .  S
C1184      H1185   1.112       .  S
C1184      C1190   1.534       .  S
C1184      C1189   1.534       .  S
C1184      C1188   1.534       .  S
C1186      H1187   1.112       .  S
C1186      C1192   1.534       .  S
C1186      C1191   1.534       .  S
C1186      C1193   1.534       .  S
C1188      C1198   1.490       .  S
C1188      C1191   1.387       .  D
C1189      C1192   1.387       .  D
C1190      C1207   1.490       .  S
C1190      C1193   1.387       .  D
C1191      C1216   1.489       .  S
C1192      C1234   1.489       .  S
C1193      C1225   1.489       .  S
C1194      C1195   1.411       .  A
C1194      C1280   1.480       .  S
C1195      C1196   1.402       .  A
C1195      H1200   1.084       .  S
C1196      C1197   1.398       .  A
C1197      H1201   1.078       .  S
C1198      C1199   1.402       .  A
C1199      H1202   1.084       .  S
C1203      C1398   1.411       .  A
C1203      C1208   1.411       .  A
C1203      C1283   1.480       .  S
C1204      C1591   1.411   1_545  A
C1204      C1205   1.402       .  A
C1204      H1209   1.084       .  S
C1205      C1594   1.398   1_545  A
C1206      C1399   1.398       .  A
C1206      C1207   1.398       .  A
C1206      H1210   1.078       .  S
C1207      C1208   1.402       .  A
C1208      H1211   1.084       .  S
C1212      C1213   1.405       .  A
C1212      C1240   1.461       .  S
C1213      C1214   1.402       .  A
C1213      H1218   1.084       .  S
C1214      C1215   1.400       .  A
C1215      H1219   1.078       .  S
C1216      C1217   1.402       .  A
C1217      H1220   1.084       .  S
C1221      C1416   1.405       .  A
C1221      C1226   1.405       .  A
C1221      C1254   1.461       .  S
C1222      C1609   1.405   1_545  A
C1222      C1223   1.402       .  A
C1222      H1227   1.084       .  S
C1223      C1612   1.400   1_545  A
C1224      C1417   1.400       .  A
C1224      C1225   1.400       .  A
C1224      H1228   1.078       .  S
C1225      C1226   1.402       .  A
C1226      H1229   1.084       .  S
C1230      C1231   1.405       .  A
C1230      C1235   1.405       .  A
C1230      C1255   1.461       .  S
C1231      C1232   1.402       .  A
C1231      H1236   1.084       .  S
C1232      C1233   1.400       .  A
C1233      C1234   1.400       .  A
C1233      H1237   1.078       .  S
C1234      C1235   1.402       .  A
C1235      H1238   1.084       .  S
O1239      C1255   1.273       .  A
C1240      O1256   1.273       .  A
C1240      O1253   1.273       .  A
O1241      C1254   1.273       .  A
O1241     Cd1248   2.062       .  S
O1242      C1260   1.274       .  A
O1242     Cd1251   2.066       .  S
O1243      C1257   1.274       .  A
O1243     Cd1441   2.066       .  S
O1244      C1255   1.273       .  A
O1244     Cd1247   2.062       .  S
Zn1245     O1256   2.020       .  S
Zn1245     O1258   2.020       .  S
Zn1245     O1250   1.953       .  S
O1246      C1257   1.274       .  A
Cd1247     O1631   2.066   1_545  S
Cd1248     O1446   2.067       .  S
Cd1248     O1261   2.067       .  S
Cd1248     O1250   1.995       .  S
O1249      C1259   1.274       .  A
O1250     Cd1251   1.995       .  S
Cd1251     O1253   2.062       .  S
O1252      C1259   1.274       .  A
O1252     Cd1636   2.067   1_545  S
C1254      O1258   1.273       .  A
C1257      C1323   1.480       .  S
C1259      C1285   1.480       .  S
C1260      C1332   1.480       .  S
C1260      O1261   1.274       .  A
O1262      C1278   1.273       .  A
C1263      C1341   1.461       .  S
C1263      O1279   1.273       .  A
C1263      O1276   1.273       .  A
O1264      C1277   1.273       .  A
O1264     Cd1271   2.062   1_556  S
O1265      C1283   1.274       .  A
O1265     Cd1274   2.066       .  S
O1266      C1280   1.274       .  A
O1267      C1278   1.273       .  A
O1267     Cd1270   2.062   1_556  S
Zn1268     O1279   2.020       .  S
Zn1268     O1475   2.020       .  S
Zn1268     O1273   1.953       .  S
O1269      C1280   1.274       .  A
O1269     Cd1274   2.066       .  S
Cd1270     O1466   2.066       .  S
Cd1271     O1672   2.067   1_545  S
Cd1271     O1661   1.995   1_544  S
O1272      C1282   1.274       .  A
O1272     Cd1658   2.066   1_545  S
O1273     Cd1465   1.995   1_556  S
O1273     Cd1274   1.995   1_556  S
Cd1274     O1276   2.062   1_554  S
O1275      C1282   1.274       .  A
C1277      C1294   1.461       .  S
C1277      O1281   1.273       .  A
C1278      C1350   1.461       .  S
O1281     Zn1656   2.020   1_545  S
C1283      O1284   1.274       .  A
O1284     Cd1465   2.067       .  S
C1285      C1286   1.411       .  A
C1286      C1287   1.402       .  A
C1286      H1291   1.084       .  S
C1287      C1288   1.398       .  A
C1287      C1309   1.490       .  S
C1288      H1292   1.078       .  S
C1289      C1290   1.402       .  A
C1289      C1317   1.490       .  S
C1290      H1293   1.084       .  S
C1294      C1299   1.405       .  A
C1295      C1296   1.402       .  A
C1295      H1300   1.084       .  S
C1296      C1320   1.489       .  S
C1297      C1298   1.400       .  A
C1297      H1301   1.078       .  S
C1298      C1299   1.402       .  A
C1298      C1312   1.489       .  S
C1299      H1302   1.084       .  S
C1303      H1304   1.112       .  S
C1303      C1309   1.534       .  S
C1303      C1308   1.534       .  S
C1303      C1307   1.534       .  S
C1305      H1306   1.112       .  S
C1305      C1311   1.534       .  S
C1305      C1310   1.534       .  S
C1305      C1312   1.534       .  S
C1307      C1334   1.490       .  S
C1307      C1310   1.387       .  D
C1308      C1325   1.490       .  S
C1308      C1311   1.387       .  D
C1309      C1312   1.387       .  D
C1310      C1345   1.489       .  S
C1311      C1354   1.489       .  S
C1313      H1314   1.112       .  S
C1313      C1319   1.534       .  S
C1313      C1318   1.534       .  S
C1313      C1317   1.534       .  S
C1315      H1316   1.112       .  S
C1315      C1321   1.534       .  S
C1315      C1320   1.534       .  S
C1315      C1322   1.534       .  S
C1317      C1320   1.387       .  D
C1318      C1336   1.490       .  S
C1318      C1321   1.387       .  D
C1319      C1327   1.490       .  S
C1319      C1322   1.387       .  D
C1321      C1343   1.489       .  S
C1322      C1352   1.489       .  S
C1323      C1518   1.411       .  A
C1323      C1328   1.411       .  A
C1324      C1711   1.411   1_545  A
C1324      C1325   1.402       .  A
C1324      H1329   1.084       .  S
C1325      C1714   1.398   1_545  A
C1326      C1519   1.398       .  A
C1326      C1327   1.398       .  A
C1326      H1330   1.078       .  S
C1327      C1328   1.402       .  A
C1328      H1331   1.084       .  S
C1332      C1333   1.411       .  A
C1332      C1337   1.411       .  A
C1333      C1334   1.402       .  A
C1333      H1338   1.084       .  S
C1334      C1335   1.398       .  A
C1335      C1336   1.398       .  A
C1335      H1339   1.078       .  S
C1336      C1337   1.402       .  A
C1337      H1340   1.084       .  S
C1341      C1342   1.405       .  A
C1341      C1346   1.405       .  A
C1342      C1343   1.402       .  A
C1342      H1347   1.084       .  S
C1343      C1344   1.400       .  A
C1344      C1345   1.400       .  A
C1344      H1348   1.078       .  S
C1345      C1346   1.402       .  A
C1346      H1349   1.084       .  S
C1350      C1351   1.405       .  A
C1350      C1549   1.405       .  A
C1351      C1352   1.402       .  A
C1351      H1356   1.084       .  S
C1352      C1353   1.400       .  A
C1353      C1548   1.400       .  A
C1353      H1357   1.078       .  S
C1354      C1741   1.400   1_545  A
C1354      C1355   1.402       .  A
C1355      C1738   1.405   1_545  A
C1355      H1358   1.084       .  S
C1359      C1360   1.411       .  A
C1359      C1364   1.411       .  A
C1359      C1476   1.480       .  S
C1360      C1361   1.402       .  A
C1360      H1365   1.084       .  S
C1361      C1362   1.398       .  A
C1361      C1374   1.490       .  S
C1362      C1363   1.398       .  A
C1362      H1366   1.078       .  S
C1363      C1364   1.402       .  A
C1363      C1383   1.490       .  S
C1364      H1367   1.084       .  S
C1368      H1369   1.112       .  S
C1368      C1374   1.534       .  S
C1368      C1373   1.534       .  S
C1368      C1372   1.534       .  S
C1370      H1371   1.112       .  S
C1370      C1376   1.534       .  S
C1370      C1375   1.534       .  S
C1370      C1377   1.534       .  S
C1372      C1399   1.490       .  S
C1372      C1375   1.387       .  D
C1373      C1390   1.490       .  S
C1373      C1376   1.387       .  D
C1374      C1377   1.387       .  D
C1375      C1417   1.489       .  S
C1376      C1408   1.489       .  S
C1377      C1426   1.489       .  S
C1378      H1379   1.112       .  S
C1378      C1384   1.534       .  S
C1378      C1383   1.534       .  S
C1378      C1382   1.534       .  S
C1380      H1381   1.112       .  S
C1380      C1386   1.534       .  S
C1380      C1385   1.534       .  S
C1380      C1387   1.534       .  S
C1382      C1392   1.490       .  S
C1382      C1385   1.387       .  D
C1383      C1386   1.387       .  D
C1384      C1401   1.490       .  S
C1384      C1387   1.387       .  D
C1385      C1410   1.489       .  S
C1386      C1428   1.489       .  S
C1387      C1419   1.489       .  S
C1388      C1389   1.411       .  A
C1388      C1474   1.480       .  S
C1389      C1390   1.402       .  A
C1389      H1394   1.084       .  S
C1390      C1391   1.398       .  A
C1391      H1395   1.078       .  S
C1392      C1393   1.402       .  A
C1393      H1396   1.084       .  S
C1397      C1592   1.411       .  A
C1397      C1402   1.411       .  A
C1397      C1477   1.480       .  S
C1398      C1399   1.402       .  A
C1398      H1403   1.084       .  S
C1400      C1593   1.398       .  A
C1400      C1401   1.398       .  A
C1400      H1404   1.078       .  S
C1401      C1402   1.402       .  A
C1402      H1405   1.084       .  S
C1406      C1407   1.405       .  A
C1406      C1434   1.461       .  S
C1407      C1408   1.402       .  A
C1407      H1412   1.084       .  S
C1408      C1409   1.400       .  A
C1409      H1413   1.078       .  S
C1410      C1411   1.402       .  A
C1411      H1414   1.084       .  S
C1415      C1610   1.405       .  A
C1415      C1420   1.405       .  A
C1415      C1448   1.461       .  S
C1416      C1417   1.402       .  A
C1416      H1421   1.084       .  S
C1418      C1611   1.400       .  A
C1418      C1419   1.400       .  A
C1418      H1422   1.078       .  S
C1419      C1420   1.402       .  A
C1420      H1423   1.084       .  S
C1424      C1425   1.405       .  A
C1424      C1429   1.405       .  A
C1424      C1449   1.461       .  S
C1425      C1426   1.402       .  A
C1425      H1430   1.084       .  S
C1426      C1427   1.400       .  A
C1427      C1428   1.400       .  A
C1427      H1431   1.078       .  S
C1428      C1429   1.402       .  A
C1429      H1432   1.084       .  S
O1433      C1449   1.273       .  A
C1434      O1450   1.273       .  A
C1434      O1447   1.273       .  A
O1435      C1448   1.273       .  A
O1435     Cd1442   2.062       .  S
O1436      C1454   1.274       .  A
O1436     Cd1445   2.066       .  S
O1437      C1451   1.274       .  A
O1437     Cd1635   2.066       .  S
O1438      C1449   1.273       .  A
O1438     Cd1441   2.062       .  S
Zn1439     O1450   2.020       .  S
Zn1439     O1452   2.020       .  S
Zn1439     O1444   1.953       .  S
O1440      C1451   1.274       .  A
Cd1442     O1640   2.067       .  S
Cd1442     O1455   2.067       .  S
Cd1442     O1444   1.995       .  S
O1443      C1453   1.274       .  A
O1444     Cd1445   1.995       .  S
Cd1445     O1447   2.062       .  S
O1446      C1453   1.274       .  A
C1448      O1452   1.273       .  A
C1451      C1517   1.480       .  S
C1453      C1479   1.480       .  S
C1454      C1526   1.480       .  S
C1454      O1455   1.274       .  A
O1456      C1472   1.273       .  A
C1457      C1535   1.461       .  S
C1457      O1473   1.273       .  A
C1457      O1470   1.273       .  A
O1458      C1471   1.273       .  A
O1458     Cd1465   2.062   1_556  S
O1459      C1477   1.274       .  A
O1459     Cd1468   2.066       .  S
O1460      C1474   1.274       .  A
O1461      C1472   1.273       .  A
O1461     Cd1464   2.062   1_556  S
Zn1462     O1473   2.020       .  S
Zn1462     O1669   2.020       .  S
Zn1462     O1467   1.953       .  S
O1463      C1474   1.274       .  A
O1463     Cd1468   2.066       .  S
Cd1464     O1660   2.066       .  S
O1466      C1476   1.274       .  A
O1467     Cd1659   1.995   1_556  S
O1467     Cd1468   1.995   1_556  S
Cd1468     O1470   2.062   1_554  S
O1469      C1476   1.274       .  A
C1471      C1488   1.461       .  S
C1471      O1475   1.273       .  A
C1472      C1544   1.461       .  S
C1477      O1478   1.274       .  A
O1478     Cd1659   2.067       .  S
C1479      C1480   1.411       .  A
C1480      C1481   1.402       .  A
C1480      H1485   1.084       .  S
C1481      C1482   1.398       .  A
C1481      C1503   1.490       .  S
C1482      H1486   1.078       .  S
C1483      C1484   1.402       .  A
C1483      C1511   1.490       .  S
C1484      H1487   1.084       .  S
C1488      C1493   1.405       .  A
C1489      C1490   1.402       .  A
C1489      H1494   1.084       .  S
C1490      C1514   1.489       .  S
C1491      C1492   1.400       .  A
C1491      H1495   1.078       .  S
C1492      C1493   1.402       .  A
C1492      C1506   1.489       .  S
C1493      H1496   1.084       .  S
C1497      H1498   1.112       .  S
C1497      C1503   1.534       .  S
C1497      C1502   1.534       .  S
C1497      C1501   1.534       .  S
C1499      H1500   1.112       .  S
C1499      C1505   1.534       .  S
C1499      C1504   1.534       .  S
C1499      C1506   1.534       .  S
C1501      C1528   1.490       .  S
C1501      C1504   1.387       .  D
C1502      C1519   1.490       .  S
C1502      C1505   1.387       .  D
C1503      C1506   1.387       .  D
C1504      C1539   1.489       .  S
C1505      C1548   1.489       .  S
C1507      H1508   1.112       .  S
C1507      C1513   1.534       .  S
C1507      C1512   1.534       .  S
C1507      C1511   1.534       .  S
C1509      H1510   1.112       .  S
C1509      C1515   1.534       .  S
C1509      C1514   1.534       .  S
C1509      C1516   1.534       .  S
C1511      C1514   1.387       .  D
C1512      C1530   1.490       .  S
C1512      C1515   1.387       .  D
C1513      C1521   1.490       .  S
C1513      C1516   1.387       .  D
C1515      C1537   1.489       .  S
C1516      C1546   1.489       .  S
C1517      C1712   1.411       .  A
C1517      C1522   1.411       .  A
C1518      C1519   1.402       .  A
C1518      H1523   1.084       .  S
C1520      C1713   1.398       .  A
C1520      C1521   1.398       .  A
C1520      H1524   1.078       .  S
C1521      C1522   1.402       .  A
C1522      H1525   1.084       .  S
C1526      C1527   1.411       .  A
C1526      C1531   1.411       .  A
C1527      C1528   1.402       .  A
C1527      H1532   1.084       .  S
C1528      C1529   1.398       .  A
C1529      C1530   1.398       .  A
C1529      H1533   1.078       .  S
C1530      C1531   1.402       .  A
C1531      H1534   1.084       .  S
C1535      C1536   1.405       .  A
C1535      C1540   1.405       .  A
C1536      C1537   1.402       .  A
C1536      H1541   1.084       .  S
C1537      C1538   1.400       .  A
C1538      C1539   1.400       .  A
C1538      H1542   1.078       .  S
C1539      C1540   1.402       .  A
C1540      H1543   1.084       .  S
C1544      C1545   1.405       .  A
C1544      C1743   1.405       .  A
C1545      C1546   1.402       .  A
C1545      H1550   1.084       .  S
C1546      C1547   1.400       .  A
C1547      C1742   1.400       .  A
C1547      H1551   1.078       .  S
C1548      C1549   1.402       .  A
C1549      H1552   1.084       .  S
C1553      C1554   1.411       .  A
C1553      C1558   1.411       .  A
C1553      C1670   1.480       .  S
C1554      C1555   1.402       .  A
C1554      H1559   1.084       .  S
C1555      C1556   1.398       .  A
C1555      C1568   1.490       .  S
C1556      C1557   1.398       .  A
C1556      H1560   1.078       .  S
C1557      C1558   1.402       .  A
C1557      C1577   1.490       .  S
C1558      H1561   1.084       .  S
C1562      H1563   1.112       .  S
C1562      C1568   1.534       .  S
C1562      C1567   1.534       .  S
C1562      C1566   1.534       .  S
C1564      H1565   1.112       .  S
C1564      C1570   1.534       .  S
C1564      C1569   1.534       .  S
C1564      C1571   1.534       .  S
C1566      C1593   1.490       .  S
C1566      C1569   1.387       .  D
C1567      C1584   1.490       .  S
C1567      C1570   1.387       .  D
C1568      C1571   1.387       .  D
C1569      C1611   1.489       .  S
C1570      C1602   1.489       .  S
C1571      C1620   1.489       .  S
C1572      H1573   1.112       .  S
C1572      C1578   1.534       .  S
C1572      C1577   1.534       .  S
C1572      C1576   1.534       .  S
C1574      H1575   1.112       .  S
C1574      C1580   1.534       .  S
C1574      C1579   1.534       .  S
C1574      C1581   1.534       .  S
C1576      C1586   1.490       .  S
C1576      C1579   1.387       .  D
C1577      C1580   1.387       .  D
C1578      C1595   1.490       .  S
C1578      C1581   1.387       .  D
C1579      C1604   1.489       .  S
C1580      C1622   1.489       .  S
C1581      C1613   1.489       .  S
C1582      C1583   1.411       .  A
C1582      C1668   1.480       .  S
C1583      C1584   1.402       .  A
C1583      H1588   1.084       .  S
C1584      C1585   1.398       .  A
C1585      H1589   1.078       .  S
C1586      C1587   1.402       .  A
C1587      H1590   1.084       .  S
C1591      C1596   1.411       .  A
C1591      C1671   1.480       .  S
C1592      C1593   1.402       .  A
C1592      H1597   1.084       .  S
C1594      C1595   1.398       .  A
C1594      H1598   1.078       .  S
C1595      C1596   1.402       .  A
C1596      H1599   1.084       .  S
C1600      C1601   1.405       .  A
C1600      C1628   1.461       .  S
C1601      C1602   1.402       .  A
C1601      H1606   1.084       .  S
C1602      C1603   1.400       .  A
C1603      H1607   1.078       .  S
C1604      C1605   1.402       .  A
C1605      H1608   1.084       .  S
C1609      C1614   1.405       .  A
C1609      C1642   1.461       .  S
C1610      C1611   1.402       .  A
C1610      H1615   1.084       .  S
C1612      C1613   1.400       .  A
C1612      H1616   1.078       .  S
C1613      C1614   1.402       .  A
C1614      H1617   1.084       .  S
C1618      C1619   1.405       .  A
C1618      C1623   1.405       .  A
C1618      C1643   1.461       .  S
C1619      C1620   1.402       .  A
C1619      H1624   1.084       .  S
C1620      C1621   1.400       .  A
C1621      C1622   1.400       .  A
C1621      H1625   1.078       .  S
C1622      C1623   1.402       .  A
C1623      H1626   1.084       .  S
O1627      C1643   1.273       .  A
C1628      O1644   1.273       .  A
C1628      O1641   1.273       .  A
O1629      C1642   1.273       .  A
O1629     Cd1636   2.062       .  S
O1630      C1648   1.274       .  A
O1630     Cd1639   2.066       .  S
O1631      C1645   1.274       .  A
O1632      C1643   1.273       .  A
O1632     Cd1635   2.062       .  S
Zn1633     O1644   2.020       .  S
Zn1633     O1646   2.020       .  S
Zn1633     O1638   1.953       .  S
O1634      C1645   1.274       .  A
Cd1636     O1649   2.067       .  S
Cd1636     O1638   1.995       .  S
O1637      C1647   1.274       .  A
O1638     Cd1639   1.995       .  S
Cd1639     O1641   2.062       .  S
O1640      C1647   1.274       .  A
C1642      O1646   1.273       .  A
C1645      C1711   1.480       .  S
C1647      C1673   1.480       .  S
C1648      C1720   1.480       .  S
C1648      O1649   1.274       .  A
O1650      C1666   1.273       .  A
C1651      C1729   1.461       .  S
C1651      O1667   1.273       .  A
C1651      O1664   1.273       .  A
O1652      C1665   1.273       .  A
O1652     Cd1659   2.062   1_556  S
O1653      C1671   1.274       .  A
O1653     Cd1662   2.066       .  S
O1654      C1668   1.274       .  A
O1655      C1666   1.273       .  A
O1655     Cd1658   2.062   1_556  S
Zn1656     O1667   2.020       .  S
Zn1656     O1661   1.953       .  S
O1657      C1668   1.274       .  A
O1657     Cd1662   2.066       .  S
O1660      C1670   1.274       .  A
O1661     Cd1662   1.995   1_556  S
Cd1662     O1664   2.062   1_554  S
O1663      C1670   1.274       .  A
C1665      C1682   1.461       .  S
C1665      O1669   1.273       .  A
C1666      C1738   1.461       .  S
C1671      O1672   1.274       .  A
C1673      C1674   1.411       .  A
C1674      C1675   1.402       .  A
C1674      H1679   1.084       .  S
C1675      C1676   1.398       .  A
C1675      C1697   1.490       .  S
C1676      H1680   1.078       .  S
C1677      C1678   1.402       .  A
C1677      C1705   1.490       .  S
C1678      H1681   1.084       .  S
C1682      C1687   1.405       .  A
C1683      C1684   1.402       .  A
C1683      H1688   1.084       .  S
C1684      C1708   1.489       .  S
C1685      C1686   1.400       .  A
C1685      H1689   1.078       .  S
C1686      C1687   1.402       .  A
C1686      C1700   1.489       .  S
C1687      H1690   1.084       .  S
C1691      H1692   1.112       .  S
C1691      C1697   1.534       .  S
C1691      C1696   1.534       .  S
C1691      C1695   1.534       .  S
C1693      H1694   1.112       .  S
C1693      C1699   1.534       .  S
C1693      C1698   1.534       .  S
C1693      C1700   1.534       .  S
C1695      C1722   1.490       .  S
C1695      C1698   1.387       .  D
C1696      C1713   1.490       .  S
C1696      C1699   1.387       .  D
C1697      C1700   1.387       .  D
C1698      C1733   1.489       .  S
C1699      C1742   1.489       .  S
C1701      H1702   1.112       .  S
C1701      C1707   1.534       .  S
C1701      C1706   1.534       .  S
C1701      C1705   1.534       .  S
C1703      H1704   1.112       .  S
C1703      C1709   1.534       .  S
C1703      C1708   1.534       .  S
C1703      C1710   1.534       .  S
C1705      C1708   1.387       .  D
C1706      C1724   1.490       .  S
C1706      C1709   1.387       .  D
C1707      C1715   1.490       .  S
C1707      C1710   1.387       .  D
C1709      C1731   1.489       .  S
C1710      C1740   1.489       .  S
C1711      C1716   1.411       .  A
C1712      C1713   1.402       .  A
C1712      H1717   1.084       .  S
C1714      C1715   1.398       .  A
C1714      H1718   1.078       .  S
C1715      C1716   1.402       .  A
C1716      H1719   1.084       .  S
C1720      C1721   1.411       .  A
C1720      C1725   1.411       .  A
C1721      C1722   1.402       .  A
C1721      H1726   1.084       .  S
C1722      C1723   1.398       .  A
C1723      C1724   1.398       .  A
C1723      H1727   1.078       .  S
C1724      C1725   1.402       .  A
C1725      H1728   1.084       .  S
C1729      C1730   1.405       .  A
C1729      C1734   1.405       .  A
C1730      C1731   1.402       .  A
C1730      H1735   1.084       .  S
C1731      C1732   1.400       .  A
C1732      C1733   1.400       .  A
C1732      H1736   1.078       .  S
C1733      C1734   1.402       .  A
C1734      H1737   1.084       .  S
C1738      C1739   1.405       .  A
C1739      C1740   1.402       .  A
C1739      H1744   1.084       .  S
C1740      C1741   1.400       .  A
C1741      H1745   1.078       .  S
C1742      C1743   1.402       .  A
C1743      H1746   1.084       .  S
