geometry optimzed in LAMMPS
_audit_creation_date              2020-11-30 
_audit_creation_method            'lammps2cif' 
_symmetry_space_group_name_H-M    'P1' 
_symmetry_Int_Tables_number       1 
_symmetry_cell_setting            triclinic 
loop_ 
_symmetry_equiv_pos_as_xyz 
  x,y,z 
_cell_length_a                    53.56300530277093 
_cell_length_b                    53.62704957829989 
_cell_length_c                    25.238128661413054 
_cell_angle_alpha                 89.6088327337582 
_cell_angle_beta                  90.45475762229255 
_cell_angle_gamma                 120.64093302576603 
loop_ 
_atom_site_label 
_atom_site_type_symbol 
_atom_site_fract_x 
_atom_site_fract_y 
_atom_site_fract_z 
_atom_site_charge 
O1          O  0.50123492  0.28610627  0.44679297    -0.73310
O2          O  0.45237541  0.22449217  0.54162895    -0.73340
O3          O  0.49273363  0.28136660  0.55276853    -0.73400
O4          O  0.46101192  0.22864048  0.43607013    -0.73450
O5          O  0.99519391  0.21707780  0.44853388    -0.73380
O6          O  0.02858255  0.27219464  0.56101947    -0.73360
O7          O  0.98807466  0.21510754  0.55443902    -0.73330
O8          O  0.03561675  0.27449547  0.45464539    -0.73400
Ni9        Ni  0.47564764  0.25560536  0.49386921     1.25410
Ni10       Ni  0.01312250  0.24433805  0.50493717     1.25360
C11         C  0.02640149  0.29048959  0.43522061     0.88870
C12         C  0.46227867  0.20972717  0.56365957     0.88800
C13         C  0.01613005  0.28595542  0.57581916     0.88830
C14         C  0.47229692  0.21325998  0.42474249     0.89000
O15         O  0.23853620  0.27167586  0.94845337    -0.73310
O16         O  0.21907892  0.20909134  0.04485910    -0.73340
O17         O  0.23296186  0.26504482  0.05564715    -0.73400
O18         O  0.22571074  0.21614301  0.93846443    -0.73450
O19         O  0.27212256  0.22868284  0.94797914    -0.73380
O20         O  0.27983585  0.27960230  0.06006137    -0.73360
O21         O  0.26597978  0.22350329  0.05467991    -0.73330
O22         O  0.28514966  0.28445765  0.95343764    -0.73400
Ni23       Ni  0.22738530  0.23999887  0.99659487     1.25410
Ni24       Ni  0.27743126  0.25458969  0.00439909     1.25360
C25         C  0.26492242  0.28800270  0.93415009     0.88870
C26         C  0.23920808  0.20603467  0.06566463     0.88800
C27         C  0.25796952  0.28058149  0.07742944     0.88830
C28         C  0.24768056  0.21426249  0.92426639     0.89000
O29         O  0.50852840  0.22042481  0.04813704    -0.73310
O30         O  0.46409977  0.23810287  0.95146578    -0.73340
O31         O  0.50635019  0.22475559  0.94189484    -0.73400
O32         O  0.46676080  0.23446160  0.05883995    -0.73450
O33         O  0.99979211  0.28140587  0.05997290    -0.73380
O34         O  0.04117677  0.27126086  0.94777674    -0.73360
O35         O  0.99893555  0.28470809  0.95264686    -0.73330
O36         O  0.04187399  0.26741468  0.05456003    -0.73400
Ni37       Ni  0.48517193  0.22777812  0.99999324     1.25410
Ni38       Ni  0.02159005  0.27788611  0.00396622     1.25360
C39         C  0.03259563  0.24084626  0.06668913     0.88870
C40         C  0.47450968  0.26419678  0.93515181     0.88800
C41         C  0.03062023  0.24628671  0.92651388     0.88830
C42         C  0.47673356  0.25974574  0.07881089     0.89000
C43         C  0.38363091  0.08490574  0.21130029     0.04240
C44         C  0.39821924  0.06954966  0.20852226    -0.11910
C45         C  0.42294079  0.07787310  0.23915335     0.01740
C46         C  0.43355116  0.10203348  0.27222606    -0.10430
C47         C  0.41892226  0.11751311  0.27630657     0.04240
C48         C  0.39377607  0.10881668  0.24542043    -0.09850
H49         H  0.39008201  0.05081561  0.18284892     0.09830
H50         H  0.45292560  0.10841245  0.29570696     0.07360
H51         H  0.38203951  0.12026955  0.24827980     0.07210
C52         C  0.08600475  0.38379916  0.28560419     0.04240
C53         C  0.11238407  0.39581631  0.25773380    -0.11910
C54         C  0.12001101  0.41876043  0.22144121     0.01740
C55         C  0.10118698  0.42950895  0.21374367    -0.10430
C56         C  0.07551493  0.41821256  0.24238726     0.04240
C57         C  0.06764256  0.39499635  0.27689458    -0.09850
H58         H  0.12712087  0.38794194  0.26511409     0.09830
H59         H  0.10700098  0.44742760  0.18668388     0.07360
H60         H  0.04761946  0.38643392  0.29899274     0.07210
C61         C  0.47955245  0.00929530  0.24100801     0.03400
C62         C  0.01065590  0.02420145  0.24027728     0.03400
C63         C  0.02516148  0.00791857  0.24079420     0.03400
C64         C  0.00860670  0.47677988  0.24201581     0.03400
C65         C  0.47746116  0.46188068  0.24287724     0.03400
C66         C  0.46295131  0.47818728  0.24252462     0.03400
C67         C  0.29066571  0.40783812  0.28942606     0.04240
C68         C  0.32073504  0.42590026  0.28359777    -0.11910
C69         C  0.33609384  0.41803100  0.24983271     0.01740
C70         C  0.32118104  0.39258859  0.22045151    -0.10430
C71         C  0.29131714  0.37334417  0.22770376     0.04240
C72         C  0.27600460  0.38114160  0.26260576    -0.09850
H73         H  0.33224045  0.44590137  0.30589552     0.09830
H74         H  0.33330856  0.38706975  0.19353748     0.07360
H75         H  0.25303401  0.36667080  0.26911876     0.07210
C76         C  0.08977957  0.19827618  0.20344948     0.04240
C77         C  0.07298713  0.16784976  0.20331126    -0.11910
C78         C  0.07974772  0.15133858  0.23699843     0.01740
C79         C  0.10349036  0.16528180  0.27150641    -0.10430
C80         C  0.12016757  0.19574228  0.27394430     0.04240
C81         C  0.11328809  0.21217739  0.23924373    -0.09850
H82         H  0.05433676  0.15690823  0.17711635     0.09830
H83         H  0.10875580  0.15227308  0.29713438     0.07360
H84         H  0.12586139  0.23560194  0.24054022     0.07210
C85         C  0.19812034  0.07897205  0.28228985     0.04240
C86         C  0.21299962  0.10267818  0.24747115    -0.11910
C87         C  0.19758996  0.10888977  0.20938437     0.01740
C88         C  0.16727180  0.09212368  0.20749699    -0.10430
C89         C  0.15220228  0.06901592  0.24248587     0.04240
C90         C  0.16760864  0.06216785  0.27904972    -0.09850
H91         H  0.23632405  0.11651777  0.25029508     0.09830
H92         H  0.15528385  0.09756201  0.17949618     0.07360
H93         H  0.15570338  0.04388412  0.30552934     0.07210
C94         C  0.41565143  0.29204652  0.22615891     0.04240
C95         C  0.42468645  0.32147044  0.21864884    -0.11910
C96         C  0.41335702  0.33491348  0.24931704     0.01740
C97         C  0.39086431  0.31831390  0.28465665    -0.10430
C98         C  0.38046934  0.28859977  0.29093646     0.04240
C99         C  0.39332695  0.27556934  0.26268369    -0.09850
H100        H  0.44184423  0.33446273  0.19076818     0.09830
H101        H  0.38192347  0.32868985  0.30831659     0.07360
H102        H  0.38628762  0.25300414  0.26976706     0.07210
C103        C  0.37165871  0.07264538  0.75666048     0.04240
C104        C  0.39017907  0.06129417  0.76098625    -0.11910
C105        C  0.41497954  0.07217531  0.72957611     0.01740
C106        C  0.42195049  0.09512972  0.69484419    -0.10430
C107        C  0.40430328  0.10734888  0.69140758     0.04240
C108        C  0.37869535  0.09556306  0.72102618    -0.09850
H109        H  0.38548480  0.04414955  0.78926216     0.09830
H110        H  0.44188037  0.10440983  0.67226511     0.07360
H111        H  0.36499439  0.10494171  0.71780890     0.07210
C112        C  0.07536226  0.38166315  0.72670227     0.04240
C113        C  0.10320865  0.39180551  0.74935264    -0.11910
C114        C  0.11498531  0.41534217  0.78470967     0.01740
C115        C  0.10101372  0.43093871  0.79252880    -0.10430
C116        C  0.07423052  0.42182065  0.76920062     0.04240
C117        C  0.06050700  0.39613694  0.74028519    -0.09850
H118        H  0.11575221  0.38188317  0.74005013     0.09830
H119        H  0.11105868  0.45029063  0.81692649     0.07360
H120        H  0.03859973  0.38842862  0.72612849     0.07210
C121        C  0.49047311  0.02393612  0.75438503     0.03400
C122        C  0.47494645  0.49307150  0.76110462     0.03400
C123        C  0.49033423  0.47782446  0.76520029     0.03400
C124        C  0.02138976  0.49346173  0.76258966     0.03400
C125        C  0.03709785  0.02441090  0.75656389     0.03400
C126        C  0.02159125  0.03974381  0.75305245     0.03400
C127        C  0.20872179  0.09021133  0.70526661     0.04240
C128        C  0.22470029  0.11561326  0.73531976    -0.11910
C129        C  0.21018731  0.12560974  0.76716507     0.01740
C130        C  0.17982253  0.11019479  0.76853096    -0.10430
C131        C  0.16377571  0.08507336  0.73856857     0.04240
C132        C  0.17823312  0.07508846  0.70688083    -0.09850
H133        H  0.24819302  0.12722039  0.73456978     0.09830
H134        H  0.16856696  0.11762528  0.79360598     0.07360
H135        H  0.16581662  0.05533215  0.68424402     0.07210
C136        C  0.08776471  0.21069551  0.77952344     0.04240
C137        C  0.07541611  0.18055154  0.78190487    -0.11910
C138        C  0.08553452  0.16666716  0.74926078     0.01740
C139        C  0.10838511  0.18314446  0.71427901    -0.10430
C140        C  0.12102400  0.21336691  0.71181236     0.04240
C141        C  0.11072619  0.22718333  0.74458978    -0.09850
H142        H  0.05738146  0.16778836  0.80832732     0.09830
H143        H  0.11626286  0.17243873  0.68884501     0.07360
H144        H  0.12037144  0.25049331  0.74271099     0.07210
C145        C  0.30416316  0.41882083  0.72455020     0.04240
C146        C  0.28905214  0.39189622  0.75135348    -0.11910
C147        C  0.30363835  0.38413967  0.78881380     0.01740
C148        C  0.33336822  0.40264602  0.79773719    -0.10430
C149        C  0.34847554  0.42888559  0.77072409     0.04240
C150        C  0.33372090  0.43747337  0.73636102    -0.09850
H151        H  0.26643605  0.37681413  0.74251556     0.09830
H152        H  0.34501872  0.39611473  0.82439208     0.07360
H153        H  0.34594316  0.45808884  0.71604911     0.07210
C154        C  0.41850752  0.30504193  0.79279138     0.04240
C155        C  0.43234545  0.33487653  0.80189752    -0.11910
C156        C  0.42243617  0.35149482  0.77719571     0.01740
C157        C  0.39765646  0.33816131  0.74519402    -0.10430
C158        C  0.38442053  0.30859094  0.73223706     0.04240
C159        C  0.39506034  0.29194710  0.75669067    -0.09850
H160        H  0.45145328  0.34535798  0.82714142     0.09830
H161        H  0.38990605  0.35144809  0.72743904     0.07360
H162        H  0.38574067  0.26926186  0.74718083     0.07210
O163        O  0.27228452  0.03939685  0.54874022    -0.73310
O164        O  0.27728860  0.99058989  0.44346228    -0.73340
O165        O  0.26607845  0.03481887  0.44285109    -0.73400
O166        O  0.28370224  0.99520676  0.54992911    -0.73450
O167        O  0.23686739  0.46212999  0.55830053    -0.73380
O168        O  0.21896415  0.50287579  0.45337205    -0.73360
O169        O  0.23005659  0.45843078  0.45224070    -0.73330
O170        O  0.22548689  0.50627167  0.55955699    -0.73400
Ni171      Ni  0.27652959  0.01609721  0.49592038     1.25410
Ni172      Ni  0.22615576  0.48131272  0.50619024     1.25360
C173        C  0.24774276  0.03094193  0.57069522     0.88870
C174        C  0.25467267  0.46638453  0.43118292     0.88800
C175        C  0.23948749  0.02589695  0.43178090     0.88830
C176        C  0.26347948  0.47167655  0.57058417     0.89000
O177        O  0.26883261  0.03511431  0.93601654    -0.73310
O178        O  0.21733057  0.99848131  0.05302135    -0.73340
O179        O  0.27383082  0.04092929  0.04331536    -0.73400
O180        O  0.21269400  0.99335288  0.94610541    -0.73450
O181        O  0.22521507  0.45955934  0.95033016    -0.73380
O182        O  0.28632197  0.50710072  0.04765806    -0.73360
O183        O  0.23030731  0.46517151  0.05718397    -0.73330
O184        O  0.28156322  0.50160599  0.94070229    -0.73400
Ni185      Ni  0.24273139  0.01819576  0.99457217     1.25410
Ni186      Ni  0.25635358  0.48221464  0.99907659     1.25360
C187        C  0.28337706  0.02400032  0.91840252     0.88870
C188        C  0.21520208  0.47569918  0.07436817     0.88800
C189        C  0.28984205  0.03156404  0.06195684     0.88830
C190        C  0.20910791  0.46888410  0.93194334     0.89000
O191        O  0.27334890  0.24215151  0.56633346    -0.73310
O192        O  0.21620311  0.21957544  0.45604634    -0.73340
O193        O  0.27216517  0.23195675  0.46168514    -0.73400
O194        O  0.21734508  0.22959451  0.56130819    -0.73450
O195        O  0.23138386  0.27573371  0.54351023    -0.73380
O196        O  0.28759428  0.27862969  0.44617783    -0.73360
O197        O  0.23147248  0.26593738  0.43837531    -0.73330
O198        O  0.28729092  0.28834212  0.55111369    -0.73400
Ni199      Ni  0.24416671  0.22915928  0.51192609     1.25410
Ni200      Ni  0.25999893  0.27882247  0.49415288     1.25360
C201        C  0.29018130  0.26912631  0.57639950     0.88870
C202        C  0.21410066  0.23892259  0.42950109     0.88800
C203        C  0.28930219  0.25594172  0.43844436     0.88830
C204        C  0.21513220  0.25202647  0.56840538     0.89000
C205        C  0.36081702  0.29650524  0.69067354    -0.04220
C206        C  0.36458811  0.31220439  0.64293739    -0.01340
C207        C  0.34128299  0.30397820  0.60733735     0.03650
C208        C  0.31420559  0.27846330  0.61628549    -0.04220
C209        C  0.31104342  0.26141721  0.66175611    -0.01330
C210        C  0.33396270  0.27057954  0.69906748     0.03640
C211        C  0.39286180  0.33641794  0.62853424     0.38300
C212        C  0.28401688  0.23453424  0.67104918     0.38290
C213        C  0.32949647  0.25309691  0.74605154     0.36710
C214        C  0.34601746  0.32138048  0.55991659     0.36710
N215        N  0.32567612  0.23865152  0.78292728    -0.38110
N216        N  0.34995402  0.33528885  0.52220302    -0.38110
N217        N  0.26258360  0.21292904  0.67822497    -0.37550
N218        N  0.41501894  0.35584939  0.61582676    -0.37560
C219        C  0.29052764  0.42772531  0.68183463    -0.04220
C220        C  0.26428516  0.42749977  0.69013893    -0.01340
C221        C  0.25424710  0.43997042  0.65213582     0.03650
C222        C  0.27150762  0.45496394  0.60765136    -0.04220
C223        C  0.29664187  0.45341722  0.59764214    -0.01330
C224        C  0.30531724  0.43889376  0.63323093     0.03640
C225        C  0.24773516  0.41521371  0.73817284     0.38300
C226        C  0.31313157  0.46561435  0.54927648     0.38290
C227        C  0.32934572  0.43510802  0.61865172     0.36710
C228        C  0.22605893  0.43709250  0.65915397     0.36710
N229        N  0.34857184  0.43252116  0.60571625    -0.38110
N230        N  0.20327618  0.43415911  0.66451507    -0.38110
N231        N  0.32624964  0.97518795  0.51072364    -0.37550
N232        N  0.23402953  0.40530165  0.77598893    -0.37560
C233        C  0.14603998  0.23021375  0.67612160    -0.04220
C234        C  0.17444249  0.24181705  0.69605540    -0.01340
C235        C  0.19784460  0.25079847  0.66083753     0.03650
C236        C  0.19292217  0.24982367  0.60569603    -0.04220
C237        C  0.16538130  0.24315323  0.58653550    -0.01330
C238        C  0.14164681  0.23220166  0.62150430     0.03640
C239        C  0.17904797  0.24433325  0.75279914     0.38300
C240        C  0.16161601  0.24802256  0.53127960     0.38290
C241        C  0.11270760  0.22259919  0.60145117     0.36710
C242        C  0.22691121  0.26117972  0.68097740     0.36710
N243        N  0.08958699  0.21495100  0.58556699    -0.38110
N244        N  0.25023748  0.26981538  0.69676124    -0.38110
N245        N  0.15859411  0.25261569  0.48755019    -0.37550
N246        N  0.18151812  0.24651725  0.79835940    -0.37560
C247        C  0.22360040  0.07819462  0.67397917    -0.04220
C248        C  0.22432572  0.05376572  0.69307762    -0.01340
C249        C  0.23522638  0.04010521  0.66087331     0.03650
C250        C  0.24421646  0.04992287  0.60873882    -0.04220
C251        C  0.24596481  0.07586791  0.59136109    -0.01330
C252        C  0.23560968  0.08997207  0.62396395     0.03640
C253        C  0.21305070  0.04239580  0.74532535     0.38300
C254        C  0.25753186  0.08752874  0.53939348     0.38290
C255        C  0.23601737  0.11578665  0.60515623     0.36710
C256        C  0.23844822  0.51663910  0.68145317     0.36710
N257        N  0.23631031  0.13640330  0.59032851    -0.38110
N258        N  0.24198859  0.49833722  0.69700420    -0.38110
N259        N  0.26690522  0.09696595  0.49804288    -0.37550
N260        N  0.20364272  0.03372572  0.78699100    -0.37560
C261        C  0.07008041  0.04080488  0.75251728    -0.04220
C262        C  0.08422658  0.05592957  0.70521813    -0.01340
C263        C  0.11473377  0.07018319  0.70067466     0.03650
C264        C  0.13163168  0.06896347  0.74229498    -0.04220
C265        C  0.11808502  0.05391310  0.78904435    -0.01330
C266        C  0.08773210  0.04051529  0.79477742     0.03640
C267        C  0.06791146  0.05494627  0.65856815     0.38300
C268        C  0.13563471  0.05219091  0.83154820     0.38290
C269        C  0.07572867  0.02791963  0.84581954     0.36710
C270        C  0.12893312  0.08623103  0.65283199     0.36710
N271        N  0.06839045  0.51939620  0.88843248    -0.38110
N272        N  0.14033344  0.09904704  0.61479584    -0.38110
N273        N  0.14965407  0.05081446  0.86527510    -0.37550
N274        N  0.05653443  0.05376691  0.61873745    -0.37560
C275        C  0.03835285  0.07268570  0.75108066    -0.04220
C276        C  0.05617606  0.08881508  0.79468876    -0.01340
C277        C  0.07256301  0.11940043  0.79308566     0.03650
C278        C  0.07048905  0.13451848  0.74915863    -0.04220
C279        C  0.05244565  0.11900313  0.70630755    -0.01330
C280        C  0.03682330  0.08841598  0.70666070     0.03640
C281        C  0.05549336  0.07459260  0.84404861     0.38300
C282        C  0.04947947  0.13474672  0.66189813     0.38290
C283        C  0.52039803  0.07422968  0.65945619     0.36710
C284        C  0.09141318  0.13548517  0.83716283     0.36710
N285        N  0.50904521  0.06554677  0.61898498    -0.38110
N286        N  0.10647766  0.14833477  0.87222698    -0.38110
N287        N  0.04706914  0.14727801  0.62662900    -0.37550
N288        N  0.05439856  0.06465055  0.88539082    -0.37560
C289        C  0.47363496  0.44493890  0.77036475    -0.04220
C290        C  0.45545052  0.43067107  0.81478541    -0.01340
C291        C  0.43816582  0.40013876  0.81660514     0.03650
C292        C  0.44081484  0.38341929  0.77708118    -0.04220
C293        C  0.46075642  0.39706663  0.73584976    -0.01330
C294        C  0.47551739  0.42737981  0.73039083     0.03640
C295        C  0.45525772  0.44653450  0.86067824     0.38300
C296        C  0.46617698  0.37975415  0.69877619     0.38290
C297        C  0.48985696  0.43933778  0.68048009     0.36710
C298        C  0.41790911  0.38574504  0.85967354     0.36710
N299        N  0.99919514  0.44664017  0.63833266    -0.38110
N300        N  0.40170794  0.37421256  0.89390190    -0.38110
N301        N  0.47085032  0.36609192  0.66959880    -0.37550
N302        N  0.45480430  0.45738948  0.89982622    -0.37560
C303        C  0.44202945  0.47646755  0.76394543    -0.04220
C304        C  0.42489388  0.45521522  0.72535647    -0.01340
C305        C  0.39461330  0.43837154  0.73063624     0.03650
C306        C  0.38049382  0.44476631  0.77022508    -0.04220
C307        C  0.39679373  0.46627741  0.80776422    -0.01330
C308        C  0.42740476  0.48117970  0.80617381     0.03640
C309        C  0.43719987  0.45108642  0.67782473     0.38300
C310        C  0.38193050  0.47252281  0.84876828     0.38290
C311        C  0.44316955  0.99933760  0.85073327     0.36710
C312        C  0.37786460  0.41398765  0.69535518     0.36710
N313        N  0.45437509  0.01233722  0.88871351    -0.38110
N314        N  0.36480961  0.39441934  0.66748969    -0.38110
N315        N  0.37000915  0.47749493  0.88133578    -0.37550
N316        N  0.44444651  0.44677621  0.63755180    -0.37560
C317        C  0.06218224  0.44112724  0.76944893    -0.04220
C318        C  0.04602946  0.44139286  0.81254862    -0.01340
C319        C  0.03464775  0.45998784  0.81204679     0.03650
C320        C  0.03733753  0.47687625  0.76624723    -0.04220
C321        C  0.05411303  0.47643068  0.72317424    -0.01330
C322        C  0.06752990  0.45974455  0.72617697     0.03640
C323        C  0.04141062  0.42258951  0.85764797     0.38300
C324        C  0.55567287  0.49025970  0.67296181     0.38290
C325        C  0.08703364  0.46171620  0.68442610     0.36710
C326        C  0.02167064  0.96247814  0.86038161     0.36710
N327        N  0.10278991  0.46355109  0.65145787    -0.38830
N328        N  0.01292086  0.96442643  0.90095425    -0.38110
N329        N  0.55701991  0.49904003  0.63044251    -0.37550
N330        N  0.03779519  0.40749938  0.89338921    -0.37560
C331        C  0.14107440  0.42365200  0.81737893    -0.04220
C332        C  0.13711457  0.41354851  0.87016008    -0.01340
C333        C  0.15948330  0.42806051  0.90776359     0.03650
C334        C  0.18647174  0.45170243  0.89208370    -0.04220
C335        C  0.19096085  0.46072398  0.83857448    -0.01330
C336        C  0.16813214  0.44702949  0.80143305     0.03640
C337        C  0.10900204  0.38979967  0.88670162     0.38300
C338        C  0.21844758  0.48548228  0.82293836     0.38290
C339        C  0.17137629  0.45842003  0.74807148     0.36710
C340        C  0.15332171  0.42074363  0.96328001     0.36710
N341        N  0.17319171  0.46730465  0.70549295    -0.38110
N342        N  0.14718625  0.41482525  0.00726940    -0.38110
N343        N  0.24037218  0.00559444  0.81147144    -0.37550
N344        N  0.08652986  0.37095393  0.89969800    -0.37560
C345        C  0.47324988  0.03901371  0.74620065    -0.04220
C346        C  0.47296979  0.05820824  0.78455802    -0.01340
C347        C  0.45397123  0.06903437  0.77876553     0.03650
C348        C  0.43486896  0.06076072  0.73528627    -0.04220
C349        C  0.43541539  0.04248414  0.69634328    -0.01330
C350        C  0.45488776  0.03223744  0.70099303     0.03640
C351        C  0.49058176  0.06609445  0.83205218     0.38300
C352        C  0.41556242  0.03394831  0.65155704     0.38290
C353        C  0.45718686  0.01647955  0.65681091     0.36710
C354        C  0.45377779  0.08860768  0.81810293     0.36710
N355        N  0.45937499  0.00554959  0.61918706    -0.38110
N356        N  0.45357574  0.10413548  0.84948792    -0.38110
N357        N  0.39963657  0.02709464  0.61603397    -0.37550
N358        N  0.50294153  0.07307524  0.87202186    -0.37560
C359        C  0.34574920  0.06091854  0.79170099    -0.04220
C360        C  0.34155872  0.07926650  0.82590063    -0.01340
C361        C  0.31895657  0.06727657  0.86345580     0.03650
C362        C  0.30268695  0.03688182  0.87147526    -0.04220
C363        C  0.30573385  0.01864510  0.83494055    -0.01330
C364        C  0.32622802  0.03071722  0.79392265     0.03640
C365        C  0.36139688  0.11038430  0.82486036     0.38300
C366        C  0.28733146  0.98735749  0.83839755     0.38290
C367        C  0.32702040  0.01207054  0.75336570     0.36710
C368        C  0.31291544  0.08645071  0.89384989     0.36710
N369        N  0.32762456  0.99744265  0.72054149    -0.38110
N370        N  0.30795844  0.10186438  0.91740945    -0.38110
N371        N  0.27268797  0.46242182  0.84133597    -0.37550
N372        N  0.37724818  0.13519475  0.82420574    -0.37560
C373        C  0.31158695  0.25776503  0.40180531    -0.04220
C374        C  0.33987123  0.26689157  0.42033216    -0.01340
C375        C  0.36253188  0.27476544  0.38386719     0.03650
C376        C  0.35658731  0.27213907  0.32903873    -0.04220
C377        C  0.32755978  0.25824628  0.31133040    -0.01330
C378        C  0.30516245  0.25192283  0.34751332     0.03640
C379        C  0.34558271  0.26763093  0.47662444     0.38300
C380        C  0.32079300  0.24989448  0.25633890     0.38290
C381        C  0.27561151  0.23989118  0.32905702     0.36710
C382        C  0.39194464  0.28556123  0.40252809     0.36710
N383        N  0.25188901  0.23022207  0.31488334    -0.38110
N384        N  0.41534019  0.29384083  0.41755569    -0.38110
N385        N  0.31519020  0.24215880  0.21291600    -0.37550
N386        N  0.35044017  0.26752947  0.52133095    -0.37560
C387        C  0.21355554  0.07116485  0.32296626    -0.04220
C388        C  0.23638694  0.06638782  0.30921666    -0.01340
C389        C  0.24634823  0.05341300  0.34615902     0.03650
C390        C  0.23210060  0.04306964  0.39524003    -0.04220
C391        C  0.21130442  0.05030556  0.41063355    -0.01330
C392        C  0.20346289  0.06577717  0.37577122     0.03640
C393        C  0.24997353  0.07486349  0.25763820     0.38300
C394        C  0.19861588  0.04282629  0.46317161     0.38290
C395        C  0.18673094  0.07800851  0.39574062     0.36710
C396        C  0.27126379  0.05083295  0.33353319     0.36710
N397        N  0.17422931  0.08827473  0.41351897    -0.38110
N398        N  0.29151435  0.04931481  0.32387204    -0.38110
N399        N  0.18838654  0.03690175  0.50494018    -0.37550
N400        N  0.26152358  0.08210485  0.21711090    -0.37560
C401        C  0.14413718  0.20967927  0.31432760    -0.04220
C402        C  0.17280079  0.23102756  0.30003120    -0.01340
C403        C  0.19529970  0.24226636  0.33853562     0.03650
C404        C  0.19022758  0.22961572  0.38971624    -0.04220
C405        C  0.16166079  0.20814604  0.40366497    -0.01330
C406        C  0.13861467  0.20009599  0.36764026     0.03640
C407        C  0.17961737  0.24069152  0.24546310     0.38300
C408        C  0.15552166  0.19467791  0.45579202     0.38290
C409        C  0.10909459  0.18323367  0.38685350     0.36710
C410        C  0.22369566  0.26640851  0.32479395     0.36710
N411        N  0.08586592  0.17038235  0.40383020    -0.38110
N412        N  0.24622628  0.28582255  0.31364310    -0.38110
N413        N  0.15049031  0.18375856  0.49714213    -0.37550
N414        N  0.18521097  0.24837416  0.20193321    -0.37560
C415        C  0.27514907  0.41782260  0.32379316    -0.04220
C416        C  0.27102739  0.41030566  0.37793970    -0.01340
C417        C  0.26185433  0.42458471  0.41260567     0.03650
C418        C  0.25761272  0.44697556  0.39341288    -0.04220
C419        C  0.25867385  0.45217790  0.33840828    -0.01330
C420        C  0.26766941  0.43777730  0.30366789     0.03640
C421        C  0.27725492  0.38865345  0.39814620     0.38300
C422        C  0.24945278  0.47144711  0.31762024     0.38290
C423        C  0.26999275  0.44377913  0.24726585     0.36710
C424        C  0.25651926  0.41599778  0.46781235     0.36710
N425        N  0.27204513  0.44797382  0.20204611    -0.38110
N426        N  0.25170170  0.40840591  0.51148125    -0.38110
N427        N  0.24126258  0.98616652  0.30092673    -0.37550
N428        N  0.28222621  0.37135114  0.41411898    -0.37560
C429        C  0.05816764  0.02372795  0.24096084    -0.04220
C430        C  0.07374499  0.02057669  0.19857234    -0.01340
C431        C  0.10430412  0.03427776  0.20039956     0.03650
C432        C  0.11999794  0.05296311  0.24236983    -0.04220
C433        C  0.10502607  0.05752430  0.28304723    -0.01330
C434        C  0.07446657  0.04204967  0.28384146     0.03640
C435        C  0.05921238  0.00502025  0.15083999     0.38300
C436        C  0.12104884  0.07927296  0.32319984     0.38290
C437        C  0.06065449  0.54380149  0.33152610     0.36710
C438        C  0.11976220  0.02942410  0.15850242     0.36710
N439        N  0.05168689  0.54528615  0.37218419    -0.38110
N440        N  0.13199153  0.02543234  0.12512130    -0.38110
N441        N  0.13325032  0.09700223  0.35484269    -0.37550
N442        N  0.04940473  0.99415363  0.11052760    -0.37560
C443        C  0.02824276  0.05726155  0.23894763    -0.04220
C444        C  0.04653796  0.07248608  0.19531090    -0.01340
C445        C  0.06376287  0.10304865  0.19539932     0.03650
C446        C  0.06154866  0.11916576  0.23683523    -0.04220
C447        C  0.04205013  0.10457964  0.27833450    -0.01330
C448        C  0.02673493  0.07402665  0.28099675     0.03640
C449        C  0.54672434  0.05759309  0.14794594     0.38300
C450        C  0.03679250  0.12101573  0.31758589     0.38290
C451        C  0.01160668  0.06083036  0.32970498     0.36710
C452        C  0.08380752  0.11800568  0.15233621     0.36710
N453        N  0.00156383  0.05249580  0.37109944    -0.38110
N454        N  0.09981024  0.12963351  0.11791065    -0.38110
N455        N  0.03167022  0.13362434  0.34843672    -0.37550
N456        N  0.54716225  0.04766783  0.10766419    -0.37560
C457        C  0.45988484  0.42890824  0.24504950    -0.04220
C458        C  0.46155624  0.41358383  0.28988685    -0.01340
C459        C  0.44586256  0.38302437  0.29135984     0.03650
C460        C  0.42778533  0.36704175  0.24881165    -0.04220
C461        C  0.42538239  0.38172155  0.20456873    -0.01330
C462        C  0.44137524  0.41235078  0.20233808     0.03640
C463        C  0.47794326  0.42845453  0.33673676     0.38300
C464        C  0.40664281  0.36508331  0.16074222     0.38290
C465        C  0.44006573  0.42593615  0.15358946     0.36710
C466        C  0.44885601  0.36787578  0.33669661     0.36710
N467        N  0.93878249  0.43477124  0.11234096    -0.38110
N468        N  0.45140297  0.35600550  0.37292126    -0.38110
N469        N  0.39174967  0.35179000  0.12581662    -0.37550
N470        N  0.48908765  0.43811412  0.37695608    -0.37560
C471        C  0.42997997  0.46259728  0.24426578    -0.04220
C472        C  0.41365054  0.46416538  0.20087343    -0.01340
C473        C  0.38311161  0.45040951  0.20341815     0.03650
C474        C  0.36828074  0.43466746  0.24876678    -0.04220
C475        C  0.38398098  0.43271731  0.29185136    -0.01330
C476        C  0.41450393  0.44658384  0.28991620     0.03640
C477        C  0.42735684  0.47821845  0.15163772     0.38300
C478        C  0.36849344  0.41602588  0.33842231     0.38290
C479        C  0.42928283  0.44567116  0.33739175     0.36710
C480        C  0.36670513  0.45220997  0.15895477     0.36710
N481        N  0.43896583  0.44492684  0.37809194    -0.38110
N482        N  0.35357813  0.45355968  0.12354691    -0.38110
N483        N  0.35611788  0.40278098  0.37547786    -0.37550
N484        N  0.43631224  0.48782478  0.11019907    -0.37560
C485        C  0.05838070  0.43283648  0.24132579    -0.04220
C486        C  0.06232791  0.45237117  0.28174513    -0.01340
C487        C  0.04401129  0.46393319  0.28498201     0.03650
C488        C  0.02438590  0.45988283  0.24306101    -0.04220
C489        C  0.02193507  0.44138489  0.20049197    -0.01330
C490        C  0.03792459  0.42702092  0.20109698     0.03640
C491        C  0.08641324  0.46194886  0.31866795     0.38300
C492        C  0.00557346  0.43885899  0.15302796     0.38290
C493        C  0.03426083  0.40703845  0.15908474     0.36710
C494        C  0.04487783  0.47844297  0.33360337     0.36710
N495        N  0.03143720  0.39112093  0.12566193    -0.38110
N496        N  0.04604554  0.48832225  0.37480225    -0.38110
N497        N  0.99447919  0.43674946  0.11245894    -0.37550
N498        N  0.10603655  0.47055374  0.34731386    -0.37560
C499        C  0.19431983  0.46089787  0.11866851    -0.04220
C500        C  0.17849662  0.43023124  0.12264020    -0.01340
C501        C  0.15414802  0.41627522  0.15615681     0.03650
C502        C  0.14786214  0.43260065  0.19154524    -0.04220
C503        C  0.16662570  0.46301636  0.19356434    -0.01330
C504        C  0.18868781  0.47718182  0.15556408     0.03640
C505        C  0.18597154  0.41266622  0.09041185     0.38300
C506        C  0.16292293  0.47991713  0.23416265     0.38290
C507        C  0.20525831  0.50859405  0.15429091     0.36710
C508        C  0.13404926  0.38551117  0.14962976     0.36710
N509        N  0.21813549  0.03361876  0.15236651    -0.38110
N510        N  0.11809149  0.36112156  0.14227871    -0.38110
N511        N  0.16021936  0.49353625  0.26651992    -0.37550
N512        N  0.19182047  0.39851741  0.06491640    -0.37560
C513        C  0.43681352  0.06010447  0.23870575    -0.04220
C514        C  0.43155372  0.04055425  0.28024254    -0.01340
C515        C  0.44652884  0.02534430  0.28270002     0.03650
C516        C  0.46423279  0.02656267  0.23982161    -0.04220
C517        C  0.46714916  0.04452701  0.19565324    -0.01330
C518        C  0.45453265  0.06206242  0.19633482     0.03640
C519        C  0.40966703  0.03509897  0.31956775     0.38300
C520        C  0.48117632  0.04395498  0.14737200     0.38290
C521        C  0.45918212  0.08174749  0.15269407     0.36710
C522        C  0.44512900  0.01091938  0.33208973     0.36710
N523        N  0.46282338  0.09743756  0.11797325    -0.38110
N524        N  0.44381981  0.00157331  0.37409815    -0.38110
N525        N  0.49066692  0.04366717  0.10652304    -0.37550
N526        N  0.39169850  0.02990641  0.35023514    -0.37560
C527        C  0.35770746  0.07515620  0.17728429    -0.04220
C528        C  0.33132503  0.05016047  0.19139465    -0.01340
C529        C  0.30821481  0.03760259  0.15474877     0.03650
C530        C  0.31214600  0.04847176  0.10253251    -0.04220
C531        C  0.33835621  0.07374137  0.08870695    -0.01330
C532        C  0.36083842  0.08748523  0.12648457     0.03640
C533        C  0.32880511  0.03606797  0.24198994     0.38300
C534        C  0.34332293  0.08438743  0.03474542     0.38290
C535        C  0.38808754  0.11305444  0.11188044     0.36710
C536        C  0.28039344  0.01328470  0.17044331     0.36710
N537        N  0.40984337  0.13339716  0.10025444    -0.38110
N538        N  0.25800242  0.49416618  0.18278227    -0.38110
N539        N  0.34833276  0.09325140  0.99188381    -0.37550
N540        N  0.32708883  0.02455064  0.28189958    -0.37560
C541        C  0.43104775  0.27974922  0.19663743    -0.04220
C542        C  0.46173255  0.29504497  0.19611608    -0.01340
C543        C  0.47669549  0.28861882  0.15802877     0.03650
C544        C  0.46131416  0.26456833  0.12351242    -0.04220
C545        C  0.43089947  0.24629860  0.13069435    -0.01330
C546        C  0.41573170  0.25467953  0.16501284     0.03640
C547        C  0.47809470  0.31773756  0.23476521     0.38300
C548        C  0.41469615  0.21914972  0.10222948     0.38290
C549        C  0.38425592  0.23819761  0.16532950     0.36710
C550        C  0.00797694  0.30746836  0.15454344     0.36710
N551        N  0.35915190  0.22488959  0.16525832    -0.38110
N552        N  0.03283438  0.32293637  0.15181541    -0.38110
N553        N  0.40162301  0.19726147  0.08026907    -0.37550
N554        N  0.49114600  0.33579383  0.26550037    -0.37560
C555        C  0.05041708  0.23319051  0.10087714    -0.04220
C556        C  0.05597439  0.24186366  0.15444298    -0.01340
C557        C  0.07161689  0.23298382  0.18720193     0.03650
C558        C  0.08104329  0.21465512  0.16693904    -0.04220
C559        C  0.07750084  0.20806944  0.11229000    -0.01330
C560        C  0.06141572  0.21637699  0.07989307     0.03640
C561        C  0.04296253  0.25723018  0.17725468     0.38300
C562        C  0.09096306  0.19318367  0.08899668     0.38290
C563        C  0.05510215  0.20635969  0.02548430     0.36710
C564        C  0.07760397  0.24225739  0.24193238     0.36710
N565        N  0.54978057  0.19774477  0.98250492    -0.38110
N566        N  0.08331053  0.24989617  0.28541101    -0.38110
N567        N  0.10201764  0.18180582  0.06965769    -0.37550
N568        N  0.03194865  0.26879814  0.19594323    -0.37560
C569        C  0.04711041  0.24177653  0.88462222    -0.04220
C570        C  0.07618975  0.24923484  0.89389238    -0.01340
C571        C  0.09009315  0.24013583  0.85828399     0.03650
C572        C  0.07528704  0.22433324  0.81262729    -0.04220
C573        C  0.04716194  0.21905317  0.80115049    -0.01330
C574        C  0.03311444  0.22780778  0.83704715     0.03640
C575        C  0.09125438  0.26464484  0.94169143     0.38300
C576        C  0.03257358  0.20385921  0.75294238     0.38290
C577        C  0.00444076  0.22291667  0.82501736     0.36710
C578        C  0.11886617  0.24535693  0.87055087     0.36710
N579        N  0.48166838  0.21949285  0.81615198    -0.38110
N580        N  0.14173775  0.24948750  0.88101120    -0.38110
N581        N  0.02147659  0.19155901  0.71431127    -0.37550
N582        N  0.10326973  0.27687214  0.97983765    -0.37560
C583        C  0.42962164  0.28851563  0.82213563    -0.04220
C584        C  0.41531993  0.27309695  0.86841208    -0.01340
C585        C  0.42953359  0.26414701  0.90452999     0.03650
C586        C  0.45827244  0.27082176  0.89483045    -0.04220
C587        C  0.47182189  0.28463175  0.84681166    -0.01330
C588        C  0.45746135  0.29325061  0.81049027     0.03640
C589        C  0.38671149  0.26817780  0.88063288     0.38300
C590        C  0.50069735  0.29024286  0.83488959     0.38290
C591        C  0.47169294  0.30785119  0.76172163     0.36710
C592        C  0.41519700  0.24992234  0.95338224     0.36710
N593        N  0.48306831  0.31943698  0.72279445    -0.38110
N594        N  0.40337003  0.23870484  0.99221004    -0.38110
N595        N  0.02373094  0.29473348  0.82537332    -0.37550
N596        N  0.36394983  0.26433907  0.89053221    -0.37560
C597        C  0.21240104  0.13412626  0.17293779    -0.04220
C598        C  0.21015670  0.12960145  0.11765744    -0.01340
C599        C  0.21851610  0.15309575  0.08267844     0.03650
C600        C  0.23108944  0.18155275  0.10257178    -0.04220
C601        C  0.23414218  0.18623678  0.15782093    -0.01330
C602        C  0.22467391  0.16252570  0.19293806     0.03640
C603        C  0.19889539  0.10062830  0.09678459     0.38300
C604        C  0.24450546  0.21504896  0.17845064     0.38290
C605        C  0.22574285  0.16681746  0.24973574     0.36710
C606        C  0.21219195  0.14760358  0.02658268     0.36710
N607        N  0.22602080  0.16907167  0.29532104    -0.38110
N608        N  0.20619806  0.14269287  0.98221476    -0.38110
N609        N  0.25228572  0.23798781  0.19474904    -0.37550
N610        N  0.19015419  0.07759096  0.08001506    -0.37560
C611        C  0.22601520  0.15161342  0.80137039    -0.04220
C612        C  0.22212467  0.17552692  0.79328005    -0.01340
C613        C  0.23218588  0.19759928  0.83145590     0.03650
C614        C  0.24442902  0.19512372  0.87928536    -0.04220
C615        C  0.25139038  0.17312191  0.88475693    -0.01330
C616        C  0.24195119  0.15119433  0.84598926     0.03640
C617        C  0.20678571  0.17691140  0.74672123     0.38300
C618        C  0.26721817  0.17236134  0.93102977     0.38290
C619        C  0.24678003  0.12715766  0.85399178     0.36710
C620        C  0.23175338  0.22389118  0.82065858     0.36710
N621        N  0.25057915  0.10794309  0.86031531    -0.38110
N622        N  0.23281509  0.24564597  0.81264780    -0.38110
N623        N  0.27988989  0.17176742  0.96790771    -0.37550
N624        N  0.19439193  0.17796271  0.70980025    -0.37560
C625        C  0.27747724  0.34501165  0.19894372    -0.04220
C626        C  0.29160890  0.32883303  0.19925326    -0.01340
C627        C  0.28581513  0.30848121  0.15915658     0.03650
C628        C  0.26240780  0.30039632  0.12304504    -0.04220
C629        C  0.24461722  0.31273232  0.12982625    -0.01330
C630        C  0.25312513  0.33608916  0.16538388     0.03640
C631        C  0.31293907  0.33377650  0.24015371     0.38300
C632        C  0.21807780  0.30237275  0.09942700     0.38290
C633        C  0.23774446  0.35186262  0.16493820     0.36710
C634        C  0.30540440  0.29743436  0.15406142     0.36710
N635        N  0.22546692  0.36444409  0.16441189    -0.38110
N636        N  0.32171251  0.28954158  0.14898432    -0.38110
N637        N  0.19655428  0.29391982  0.07615186    -0.37550
N638        N  0.32989394  0.33762343  0.27265811    -0.37560
C639        C  0.28878487  0.35659182  0.81940175    -0.04220
C640        C  0.29677642  0.33551518  0.81172604    -0.01340
C641        C  0.28905755  0.31324182  0.84932759     0.03650
C642        C  0.27211338  0.31099070  0.89372832    -0.04220
C643        C  0.26226041  0.33080979  0.89916460    -0.01330
C644        C  0.27099444  0.35382095  0.86263492     0.03640
C645        C  0.31339914  0.33699643  0.76546080     0.38300
C646        C  0.24469747  0.32883304  0.94414265     0.38290
C647        C  0.26331285  0.37576985  0.87167773     0.36710
C648        C  0.29876091  0.29270328  0.84243995     0.36710
N649        N  0.25730931  0.39331417  0.87945327    -0.38110
N650        N  0.30648776  0.27627005  0.83761143    -0.38110
N651        N  0.23066831  0.32763612  0.97974889    -0.37550
N652        N  0.32646224  0.33776590  0.72856809    -0.37560
C653        C  0.45757166  0.18910702  0.38643725    -0.04220
C654        C  0.45141433  0.19383224  0.33404105    -0.01340
C655        C  0.43824099  0.17046122  0.29789379     0.03650
C656        C  0.42988665  0.14200585  0.31477061    -0.04220
C657        C  0.43421926  0.13723331  0.36838760    -0.01330
C658        C  0.44904596  0.16071083  0.40328064     0.03640
C659        C  0.45982015  0.22291262  0.31663542     0.38300
C660        C  0.42275362  0.10802708  0.38861178     0.38290
C661        C  0.45540025  0.15538459  0.45685526     0.36710
C662        C  0.43432967  0.17600366  0.24303290     0.36710
N663        N  0.96060296  0.15088456  0.49922621    -0.38110
N664        N  0.43125594  0.18057816  0.19931550    -0.38110
N665        N  0.41364918  0.08501809  0.40607946    -0.37550
N666        N  0.46648782  0.24609144  0.30269321    -0.37560
C667        C  0.44371758  0.18561400  0.59990937    -0.04220
C668        C  0.45337719  0.18562612  0.65199020    -0.01340
C669        C  0.43943334  0.16026228  0.68289437     0.03650
C670        C  0.41532197  0.13499722  0.66223794    -0.04220
C671        C  0.40364591  0.13590289  0.61251953    -0.01330
C672        C  0.41778462  0.16131941  0.58134652     0.03640
C673        C  0.97704897  0.21205521  0.67420321     0.38300
C674        C  0.37797547  0.11030750  0.59258300     0.38290
C675        C  0.40633779  0.16201026  0.52945007     0.36710
C676        C  0.45021980  0.15965178  0.73552682     0.36710
N677        N  0.39713521  0.16255789  0.48809437    -0.38110
N678        N  0.45843821  0.15835716  0.77740618    -0.38110
N679        N  0.35744594  0.08984816  0.57687104    -0.37550
N680        N  0.99552576  0.23332327  0.69224883    -0.37560
C681        C  0.02983272  0.30869864  0.61805465    -0.04220
C682        C  0.02511474  0.33234331  0.61795822    -0.01340
C683        C  0.04404603  0.35762855  0.64590522     0.03650
C684        C  0.06141366  0.35682464  0.68789840    -0.04220
C685        C  0.06314392  0.33135970  0.69369400    -0.01330
C686        C  0.04957698  0.30868285  0.65605533     0.03640
C687        C  0.00062986  0.33114539  0.59031128     0.38300
C688        C  0.07800130  0.32764978  0.73864577     0.38290
C689        C  0.05547984  0.28510629  0.65820159     0.36710
C690        C  0.04669079  0.38466339  0.62795152     0.36710
N691        N  0.06059582  0.26658328  0.66002398    -0.38110
N692        N  0.04850562  0.40587113  0.61239745    -0.38110
N693        N  0.08973418  0.32437258  0.77437114    -0.37550
N694        N  0.48101729  0.33029673  0.56889094    -0.37560
C695        C  0.07738439  0.36098077  0.32728943    -0.04220
C696        C  0.07085798  0.36648028  0.37843374    -0.01340
C697        C  0.05425480  0.34347798  0.41345985     0.03650
C698        C  0.04523664  0.31475163  0.39915650    -0.04220
C699        C  0.05413485  0.30940233  0.35021129    -0.01330
C700        C  0.07061336  0.33253869  0.31467143     0.03640
C701        C  0.08132280  0.39598912  0.39554505     0.38300
C702        C  0.04417762  0.27976575  0.33491968     0.38290
C703        C  0.08057198  0.32690703  0.26565440     0.36710
C704        C  0.04617851  0.34984424  0.46382248     0.36710
N705        N  0.08900061  0.32193527  0.22748662    -0.38110
N706        N  0.04042786  0.35654969  0.50313658    -0.38110
N707        N  0.03541156  0.25584197  0.32351571    -0.37550
N708        N  0.08952855  0.41919597  0.41082270    -0.37560
O709        O  0.50121947  0.78611692  0.44681713    -0.73310
O710        O  0.45234863  0.72448966  0.54162812    -0.73340
O711        O  0.49269051  0.78136981  0.55278734    -0.73400
O712        O  0.46100940  0.72864769  0.43607443    -0.73450
O713        O  0.99519166  0.71709641  0.44856366    -0.73380
O714        O  0.02854591  0.77221589  0.56105165    -0.73360
O715        O  0.98804880  0.71512619  0.55446187    -0.73330
O716        O  0.03560727  0.77451376  0.45468832    -0.73400
Ni717      Ni  0.47562525  0.75560968  0.49387949     1.25410
Ni718      Ni  0.01310385  0.74435765  0.50497113     1.25360
C719        C  0.02639473  0.79050629  0.43524786     0.88870
C720        C  0.46225515  0.70973026  0.56367189     0.88800
C721        C  0.01608423  0.78596999  0.57583941     0.88830
C722        C  0.47230218  0.71327232  0.42476204     0.89000
O723        O  0.23854021  0.77167695  0.94845077    -0.73310
O724        O  0.21908178  0.70909391  0.04486343    -0.73340
O725        O  0.23296378  0.76504735  0.05564543    -0.73400
O726        O  0.22571488  0.71614368  0.93846846    -0.73450
O727        O  0.27212659  0.72868373  0.94798664    -0.73380
O728        O  0.27983790  0.77960554  0.06006334    -0.73360
O729        O  0.26598260  0.72350662  0.05468773    -0.73330
O730        O  0.28515353  0.78445892  0.95343922    -0.73400
Ni731      Ni  0.22738857  0.74000064  0.99659576     1.25410
Ni732      Ni  0.27743445  0.75459195  0.00440391     1.25360
C733        C  0.26492663  0.78800334  0.93414755     0.88870
C734        C  0.23921081  0.70603784  0.06567178     0.88800
C735        C  0.25797092  0.78058430  0.07742914     0.88830
C736        C  0.24768482  0.71426275  0.92427323     0.89000
O737        O  0.50855796  0.72043376  0.04815623    -0.73310
O738        O  0.46411716  0.73811379  0.95151793    -0.73340
O739        O  0.50636521  0.72476291  0.94191658    -0.73400
O740        O  0.46679314  0.73447134  0.05888534    -0.73450
O741        O  0.99979712  0.78138695  0.05998949    -0.73380
O742        O  0.04118525  0.77124658  0.94779808    -0.73360
O743        O  0.99893822  0.78468381  0.95266548    -0.73330
O744        O  0.04188248  0.76740169  0.05458215    -0.73400
Ni745      Ni  0.48519566  0.72778740  0.00002754     1.25410
Ni746      Ni  0.02159602  0.77786835  0.00398607     1.25360
C747        C  0.03260568  0.74083418  0.06671598     0.88870
C748        C  0.47452554  0.76420814  0.93520767     0.88800
C749        C  0.03063053  0.74627343  0.92653309     0.88830
C750        C  0.47676660  0.75975560  0.07885504     0.89000
C751        C  0.38365787  0.58492517  0.21129458     0.04240
C752        C  0.39824564  0.56956880  0.20851460    -0.11910
C753        C  0.42296599  0.57788999  0.23914723     0.01740
C754        C  0.43357670  0.60204919  0.27222323    -0.10430
C755        C  0.41894890  0.61752983  0.27630583     0.04240
C756        C  0.39380315  0.60883512  0.24541802    -0.09850
H757        H  0.39010778  0.55083495  0.18284054     0.09830
H758        H  0.45295021  0.60842606  0.29570564     0.07360
H759        H  0.38206687  0.62028815  0.24827935     0.07210
C760        C  0.08598760  0.88379327  0.28559191     0.04240
C761        C  0.11236425  0.89580129  0.25771360    -0.11910
C762        C  0.11999112  0.91873866  0.22140468     0.01740
C763        C  0.10116690  0.92948605  0.21369344    -0.10430
C764        C  0.07549820  0.91819904  0.24234552     0.04240
C765        C  0.06762834  0.89499245  0.27687592    -0.09850
H766        H  0.12709942  0.88792578  0.26510221     0.09830
H767        H  0.10698039  0.94739977  0.18662161     0.07360
H768        H  0.04760938  0.88643872  0.29898433     0.07210
C769        C  0.47955951  0.50929578  0.24101798     0.03400
C770        C  0.01066701  0.52420771  0.24029686     0.03400
C771        C  0.02517036  0.50792273  0.24081921     0.03400
C772        C  0.00859983  0.97677567  0.24199089     0.03400
C773        C  0.47745797  0.96188205  0.24286638     0.03400
C774        C  0.46294623  0.97818670  0.24251617     0.03400
C775        C  0.29066193  0.90783861  0.28942503     0.04240
C776        C  0.32073114  0.92590111  0.28359488    -0.11910
C777        C  0.33608959  0.91803145  0.24982979     0.01740
C778        C  0.32117681  0.89258828  0.22045111    -0.10430
C779        C  0.29131322  0.87334380  0.22770525     0.04240
C780        C  0.27600082  0.88114147  0.26260682    -0.09850
H781        H  0.33223659  0.94590293  0.30589055     0.09830
H782        H  0.33330413  0.88706896  0.19353747     0.07360
H783        H  0.25303020  0.86667077  0.26911976     0.07210
C784        C  0.08979356  0.69828036  0.20349697     0.04240
C785        C  0.07300401  0.66785415  0.20335699    -0.11910
C786        C  0.07976637  0.65134459  0.23704434     0.01740
C787        C  0.10350937  0.66528958  0.27155132    -0.10430
C788        C  0.12018454  0.69575037  0.27398772     0.04240
C789        C  0.11330131  0.71218390  0.23929099    -0.09850
H790        H  0.05435447  0.65691162  0.17716035     0.09830
H791        H  0.10877690  0.65228230  0.29717886     0.07360
H792        H  0.12587100  0.73560865  0.24058948     0.07210
C793        C  0.19813028  0.57897730  0.28230185     0.04240
C794        C  0.21300822  0.60268307  0.24748147    -0.11910
C795        C  0.19759716  0.60889309  0.20939459     0.01740
C796        C  0.16727902  0.59212560  0.20750885    -0.10430
C797        C  0.15221095  0.56901827  0.24249922     0.04240
C798        C  0.16761864  0.56217201  0.27906307    -0.09850
H799        H  0.23633254  0.61652369  0.25030430     0.09830
H800        H  0.15528989  0.59756275  0.17950866     0.07360
H801        H  0.15571431  0.54388876  0.30554409     0.07210
C802        C  0.41567695  0.79205270  0.22618637     0.04240
C803        C  0.42470721  0.82147487  0.21866758    -0.11910
C804        C  0.41337176  0.83491576  0.24932572     0.01740
C805        C  0.39087841  0.81831547  0.28466369    -0.10430
C806        C  0.38048906  0.78860299  0.29095234     0.04240
C807        C  0.39335245  0.77557511  0.26271034    -0.09850
H808        H  0.44186541  0.83446759  0.19078792     0.09830
H809        H  0.38193326  0.82868985  0.30831648     0.07360
H810        H  0.38631714  0.75301140  0.26980069     0.07210
C811        C  0.37164099  0.57262566  0.75662123     0.04240
C812        C  0.39016065  0.56127343  0.76094538    -0.11910
C813        C  0.41495965  0.57215211  0.72953107     0.01740
C814        C  0.42192796  0.59510373  0.69479245    -0.10430
C815        C  0.40428056  0.60732296  0.69135541     0.04240
C816        C  0.37867498  0.59553986  0.72098030    -0.09850
H817        H  0.38546859  0.54413197  0.78922732     0.09830
H818        H  0.44185779  0.60438403  0.67221327     0.07360
H819        H  0.36497518  0.60491996  0.71776629     0.07210
C820        C  0.07528331  0.88162486  0.72685452     0.04240
C821        C  0.10315091  0.89177839  0.74940347    -0.11910
C822        C  0.11496622  0.91532028  0.78474127     0.01740
C823        C  0.10099974  0.93091726  0.79264021    -0.10430
C824        C  0.07418844  0.92178440  0.76941988     0.04240
C825        C  0.06043123  0.89608934  0.74053714    -0.09850
H826        H  0.11570119  0.88184241  0.74002238     0.09830
H827        H  0.11106833  0.95027276  0.81700309     0.07360
H828        H  0.03852207  0.88837875  0.72646686     0.07210
C829        C  0.49047390  0.52393838  0.75438421     0.03400
C830        C  0.47494609  0.99306895  0.76110208     0.03400
C831        C  0.49033575  0.97782444  0.76521922     0.03400
C832        C  0.02139212  0.99345876  0.76264444     0.03400
C833        C  0.03709755  0.52441483  0.75651977     0.03400
C834        C  0.02159303  0.53975051  0.75302432     0.03400
C835        C  0.20872640  0.59020557  0.70528723     0.04240
C836        C  0.22470350  0.61560861  0.73533809    -0.11910
C837        C  0.21018931  0.62560454  0.76718161     0.01740
C838        C  0.17982437  0.61018793  0.76854763    -0.10430
C839        C  0.16377880  0.58506530  0.73858709     0.04240
C840        C  0.17823774  0.57508108  0.70690178    -0.09850
H841        H  0.24819626  0.62721723  0.73458752     0.09830
H842        H  0.16856782  0.61761886  0.79361888     0.07360
H843        H  0.16582225  0.55532495  0.68426398     0.07210
C844        C  0.08775704  0.71070074  0.77947011     0.04240
C845        C  0.07540627  0.68055654  0.78184803    -0.11910
C846        C  0.08553007  0.66667280  0.74921499     0.01740
C847        C  0.10838591  0.68315043  0.71424343    -0.10430
C848        C  0.12102566  0.71337290  0.71177713     0.04240
C849        C  0.11072411  0.72718917  0.74454663    -0.09850
H850        H  0.05736922  0.66779312  0.80826564     0.09830
H851        H  0.11626808  0.67244507  0.68881891     0.07360
H852        H  0.12037301  0.75049971  0.74267418     0.07210
C853        C  0.30415206  0.91880052  0.72449979     0.04240
C854        C  0.28904328  0.89188034  0.75131867    -0.11910
C855        C  0.30363576  0.88412551  0.78876919     0.01740
C856        C  0.33336839  0.90263003  0.79766834    -0.10430
C857        C  0.34847252  0.92886520  0.77064078     0.04240
C858        C  0.33371342  0.93745066  0.73628506    -0.09850
H859        H  0.26642411  0.87680055  0.74250044     0.09830
H860        H  0.34502260  0.89610220  0.82432117     0.07360
H861        H  0.34593302  0.95806369  0.71596393     0.07210
C862        C  0.41851499  0.80503898  0.79284106     0.04240
C863        C  0.43235879  0.83487579  0.80192564    -0.11910
C864        C  0.42245516  0.85149324  0.77720061     0.01740
C865        C  0.39767846  0.83815764  0.74519249    -0.10430
C866        C  0.38443918  0.80858455  0.73225595     0.04240
C867        C  0.39507175  0.79194101  0.75673460    -0.09850
H868        H  0.45146435  0.84535829  0.82717495     0.09830
H869        H  0.38993186  0.85144365  0.72741942     0.07360
H870        H  0.38574918  0.76925347  0.74724117     0.07210
O871        O  0.27229135  0.53939956  0.54874599    -0.73310
O872        O  0.27729832  0.49059197  0.44347250    -0.73340
O873        O  0.26608508  0.53481905  0.44285662    -0.73400
O874        O  0.28371218  0.49521249  0.54993974    -0.73450
O875        O  0.23685629  0.96212746  0.55829169    -0.73380
O876        O  0.21895722  0.00287586  0.45336304    -0.73360
O877        O  0.23004688  0.95842904  0.45223244    -0.73330
O878        O  0.22547893  0.00627154  0.55954756    -0.73400
Ni879      Ni  0.27653781  0.51609990  0.49592806     1.25410
Ni880      Ni  0.22614686  0.98131175  0.50618147     1.25360
C881        C  0.24774991  0.53094281  0.57070386     0.88870
C882        C  0.25466265  0.96638261  0.43117342     0.88800
C883        C  0.23949386  0.52589656  0.43178788     0.88830
C884        C  0.26346818  0.97167114  0.57057226     0.89000
O885        O  0.26884463  0.53512810  0.93602904    -0.73310
O886        O  0.21735007  0.49850917  0.05305115    -0.73340
O887        O  0.27385405  0.54094640  0.04332731    -0.73400
O888        O  0.21270184  0.49337995  0.94613898    -0.73450
O889        O  0.22521805  0.95954060  0.95030991    -0.73380
O890        O  0.28631123  0.00709292  0.04765083    -0.73360
O891        O  0.23030002  0.96515312  0.05716624    -0.73330
O892        O  0.28156222  0.00160041  0.94069459    -0.73400
Ni893      Ni  0.24274781  0.51821780  0.99459454     1.25410
Ni894      Ni  0.25634993  0.98220229  0.99906353     1.25360
C895        C  0.28338203  0.52400732  0.91840954     0.88870
C896        C  0.21518917  0.97567577  0.07434540     0.88800
C897        C  0.28986112  0.53157525  0.06196399     0.88830
C898        C  0.20910829  0.96885965  0.93191229     0.89000
O899        O  0.27336974  0.74215241  0.56635363    -0.73310
O900        O  0.21622641  0.71958340  0.45606591    -0.73340
O901        O  0.27218626  0.73195814  0.46170543    -0.73400
O902        O  0.21736817  0.72960251  0.56132617    -0.73450
O903        O  0.23141213  0.77574299  0.54352840    -0.73380
O904        O  0.28762022  0.77863217  0.44619843    -0.73360
O905        O  0.23150048  0.76594644  0.43839510    -0.73330
O906        O  0.28731798  0.78834476  0.55113416    -0.73400
Ni907      Ni  0.24418874  0.72916389  0.51194564     1.25410
Ni908      Ni  0.26002660  0.77882849  0.49417285     1.25360
C909        C  0.29020494  0.76912666  0.57641944     0.88870
C910        C  0.21412588  0.73893205  0.42952229     0.88800
C911        C  0.28932513  0.75594255  0.43846467     0.88830
C912        C  0.21515712  0.75203574  0.56842099     0.89000
C913        C  0.36083834  0.79649531  0.69068991    -0.04220
C914        C  0.36461602  0.81218782  0.64294361    -0.01340
C915        C  0.34131105  0.80396742  0.60734666     0.03650
C916        C  0.31422882  0.77845981  0.61630378    -0.04220
C917        C  0.31106159  0.76141573  0.66178049    -0.01330
C918        C  0.33397987  0.77057612  0.69909305     0.03640
C919        C  0.39289676  0.83638649  0.62852902     0.38300
C920        C  0.28403131  0.73453747  0.67107833     0.38290
C921        C  0.32950978  0.75309889  0.74608703     0.36710
C922        C  0.34604982  0.82136760  0.55992159     0.36710
N923        N  0.32568994  0.73866024  0.78297305    -0.38110
N924        N  0.34998975  0.83527447  0.52220469    -0.38110
N925        N  0.26259494  0.71293585  0.67825782    -0.37550
N926        N  0.41506184  0.85580450  0.61581716    -0.37560
C927        C  0.29051099  0.92770433  0.68179415    -0.04220
C928        C  0.26427647  0.92749143  0.69011868    -0.01340
C929        C  0.25423910  0.93996736  0.65212520     0.03650
C930        C  0.27149414  0.95495402  0.60763123    -0.04220
C931        C  0.29661907  0.95339386  0.59760183    -0.01330
C932        C  0.30529106  0.93886311  0.63317962     0.03640
C933        C  0.24773365  0.91521183  0.73816153     0.38300
C934        C  0.31310186  0.96558485  0.54922758     0.38290
C935        C  0.32930458  0.93505760  0.61857880     0.36710
C936        C  0.22605780  0.93710270  0.65916323     0.36710
N937        N  0.34851756  0.93245218  0.60562989    -0.38110
N938        N  0.20328039  0.93418011  0.66454068    -0.38110
N939        N  0.32628483  0.47522217  0.51077945    -0.37550
N940        N  0.23403282  0.90530497  0.77598429    -0.37560
C941        C  0.14604995  0.73022005  0.67610331    -0.04220
C942        C  0.17444761  0.74180736  0.69605226    -0.01340
C943        C  0.19785554  0.75079304  0.66084668     0.03650
C944        C  0.19294399  0.74983370  0.60570346    -0.04220
C945        C  0.16540905  0.74317611  0.58653081    -0.01330
C946        C  0.14166848  0.73222311  0.62148601     0.03640
C947        C  0.17904143  0.74429869  0.75279942     0.38300
C948        C  0.16165572  0.74805807  0.53127577     0.38290
C949        C  0.11273422  0.72263090  0.60141767     0.36710
C950        C  0.22691789  0.76116520  0.68100010     0.36710
N951        N  0.08961724  0.71498985  0.58552179    -0.38110
N952        N  0.25024160  0.76979523  0.69679259    -0.38110
N953        N  0.15864371  0.75266059  0.48754686    -0.37550
N954        N  0.18150147  0.74646054  0.79836311    -0.37560
C955        C  0.22360633  0.57819058  0.67399837    -0.04220
C956        C  0.22432830  0.55375870  0.69309005    -0.01340
C957        C  0.23523035  0.54010034  0.66088342     0.03650
C958        C  0.24422320  0.54992184  0.60875163    -0.04220
C959        C  0.24597473  0.57586935  0.59138092    -0.01330
C960        C  0.23562000  0.58997252  0.62398757     0.03640
C961        C  0.21304873  0.54238359  0.74533312     0.38300
C962        C  0.25754427  0.58753354  0.53941618     0.38290
C963        C  0.23603275  0.61579088  0.60518780     0.36710
C964        C  0.23844514  0.01664546  0.68144789     0.36710
N965        N  0.23633016  0.63641074  0.59036633    -0.38110
N966        N  0.24198652  0.99834497  0.69700309    -0.38110
N967        N  0.26691950  0.59697299  0.49806764    -0.37550
N968        N  0.20363708  0.53370901  0.78699491    -0.37560
C969        C  0.07008075  0.54080592  0.75248505    -0.04220
C970        C  0.08423662  0.55593399  0.70519437    -0.01340
C971        C  0.11474423  0.57018081  0.70066591     0.03650
C972        C  0.13163398  0.56895812  0.74229836    -0.04220
C973        C  0.11807830  0.55390868  0.78904324    -0.01330
C974        C  0.08772403  0.54051114  0.79475585     0.03640
C975        C  0.06793334  0.55497142  0.65854182     0.38300
C976        C  0.13562001  0.55218843  0.83156461     0.38290
C977        C  0.07570964  0.52791329  0.84579112     0.36710
C978        C  0.12895306  0.58622687  0.65282691     0.36710
N979        N  0.06841991  0.01940336  0.88846478    -0.38110
N980        N  0.14036076  0.59904081  0.61479344    -0.38110
N981        N  0.14963311  0.55081427  0.86530639    -0.37550
N982        N  0.05657053  0.55381464  0.61870554    -0.37560
C983        C  0.03835548  0.57269193  0.75104823    -0.04220
C984        C  0.05617757  0.58882359  0.79465556    -0.01340
C985        C  0.07256079  0.61940914  0.79305021     0.03650
C986        C  0.07048771  0.63452444  0.74911764    -0.04220
C987        C  0.05244861  0.61900662  0.70626412    -0.01330
C988        C  0.03682568  0.58841958  0.70662430     0.03640
C989        C  0.05549725  0.57460361  0.84401696     0.38300
C990        C  0.04948874  0.63474788  0.66184358     0.38290
C991        C  0.52040624  0.57424386  0.65946167     0.36710
C992        C  0.09140592  0.63549698  0.83713083     0.36710
N993        N  0.50905328  0.56556868  0.61898796    -0.38110
N994        N  0.10646600  0.64834903  0.87219806    -0.38110
N995        N  0.04708481  0.64727808  0.62656536    -0.37550
N996        N  0.05440537  0.56466540  0.88536182    -0.37560
C997        C  0.47363887  0.94493826  0.77038031    -0.04220
C998        C  0.45543891  0.93066591  0.81478156    -0.01340
C999        C  0.43815782  0.90013342  0.81659303     0.03650
C1000       C  0.44082949  0.88341795  0.77709028    -0.04220
C1001       C  0.46078461  0.89706964  0.73587992    -0.01330
C1002       C  0.47554032  0.92738292  0.73042125     0.03640
C1003       C  0.45522469  0.94652386  0.86066500     0.38300
C1004       C  0.46622196  0.87976120  0.69882586     0.38290
C1005       C  0.48989524  0.93934518  0.68052365     0.36710
C1006       C  0.41787871  0.88573526  0.85962931     0.36710
N1007       N  0.99925014  0.94666835  0.63838336    -0.38110
N1008       N  0.40165853  0.87419896  0.89383000    -0.38110
N1009       N  0.47090774  0.86610081  0.66966642    -0.37550
N1010       N  0.45475122  0.95737245  0.89980707    -0.37560
C1011       C  0.44202821  0.97646198  0.76391741    -0.04220
C1012       C  0.42490338  0.95520825  0.72532233    -0.01340
C1013       C  0.39462114  0.93836235  0.73057787     0.03650
C1014       C  0.38049098  0.94475410  0.77015064    -0.04220
C1015       C  0.39678050  0.96626860  0.80769050    -0.01330
C1016       C  0.42739171  0.98117350  0.80612507     0.03640
C1017       C  0.43722421  0.95108109  0.67780881     0.38300
C1018       C  0.38190586  0.97251559  0.84866988     0.38290
C1019       C  0.44319583  0.49934377  0.85077370     0.36710
C1020       C  0.37788207  0.91397943  0.69529002     0.36710
N1021       N  0.45441459  0.51234472  0.88874587    -0.38110
N1022       N  0.36483439  0.89441111  0.66742097    -0.38110
N1023       N  0.36997517  0.97748929  0.88121625    -0.37550
N1024       N  0.44448724  0.94677565  0.63754907    -0.37560
C1025       C  0.06216436  0.94111125  0.76964926    -0.04220
C1026       C  0.04599685  0.94138416  0.81271607    -0.01340
C1027       C  0.03462934  0.95999120  0.81217248     0.03650
C1028       C  0.03734079  0.97687619  0.76635542    -0.04220
C1029       C  0.05413479  0.97642586  0.72331991    -0.01330
C1030       C  0.06754234  0.95973282  0.72637194     0.03640
C1031       C  0.04134665  0.92257584  0.85782131     0.38300
C1032       C  0.55572056  0.99026035  0.67307794     0.38290
C1033       C  0.08705707  0.96169030  0.68465393     0.36710
C1034       C  0.02169463  0.46245474  0.86027996     0.36710
N1035       N  0.10281893  0.96350864  0.65171121    -0.38830
N1036       N  0.01294899  0.46438088  0.90087306    -0.38110
N1037       N  0.55709428  0.99904134  0.63055080    -0.37550
N1038       N  0.03770423  0.90748065  0.89356758    -0.37560
C1039       C  0.14107192  0.92362256  0.81735551    -0.04220
C1040       C  0.13713270  0.91349250  0.87011634    -0.01340
C1041       C  0.15950263  0.92800622  0.90771628     0.03650
C1042       C  0.18647679  0.95167318  0.89204706    -0.04220
C1043       C  0.19095352  0.96071151  0.83854698    -0.01330
C1044       C  0.16811979  0.94701836  0.80141311     0.03640
C1045       C  0.10903500  0.88971460  0.88664905     0.38300
C1046       C  0.21843420  0.98548058  0.82291649     0.38290
C1047       C  0.17134994  0.95842434  0.74806710     0.36710
C1048       C  0.15335121  0.92066415  0.96322589     0.36710
N1049       N  0.17315963  0.96732254  0.70550131    -0.38110
N1050       N  0.14722050  0.91472298  0.00721035    -0.38110
N1051       N  0.24038761  0.50558992  0.81148175    -0.37550
N1052       N  0.08657450  0.87084514  0.89963672    -0.37560
C1053       C  0.47324914  0.53901365  0.74618941    -0.04220
C1054       C  0.47295800  0.55820353  0.78454370    -0.01340
C1055       C  0.45395003  0.56901839  0.77874438     0.03650
C1056       C  0.43485436  0.56074368  0.73525400    -0.04220
C1057       C  0.43541496  0.54247468  0.69631060    -0.01330
C1058       C  0.45489296  0.53223526  0.70097302     0.03640
C1059       C  0.49057322  0.56610195  0.83203460     0.38300
C1060       C  0.41557053  0.53393840  0.65151135     0.38290
C1061       C  0.45720673  0.51648457  0.65679396     0.36710
C1062       C  0.45374077  0.58858188  0.81808538     0.36710
N1063       N  0.45940996  0.50556132  0.61917458    -0.38110
N1064       N  0.45352547  0.60410114  0.84947398    -0.38110
N1065       N  0.39965163  0.52708434  0.61597735    -0.37550
N1066       N  0.50293706  0.57309480  0.87199922    -0.37560
C1067       C  0.34573705  0.56090592  0.79167502    -0.04220
C1068       C  0.34155502  0.57925939  0.82587473    -0.01340
C1069       C  0.31895935  0.56727583  0.86344329     0.03650
C1070       C  0.30268791  0.53688199  0.87147462    -0.04220
C1071       C  0.30572765  0.51863959  0.83494178    -0.01330
C1072       C  0.32621385  0.53070574  0.79391027     0.03640
C1073       C  0.36139493  0.61037662  0.82481872     0.38300
C1074       C  0.28732574  0.48735233  0.83841322     0.38290
C1075       C  0.32699496  0.51205497  0.75334970     0.36710
C1076       C  0.31292736  0.58645571  0.89383983     0.36710
N1077       N  0.32759096  0.49742586  0.72051923    -0.38110
N1078       N  0.30797746  0.60187376  0.91740168    -0.38110
N1079       N  0.27269339  0.96242667  0.84130992    -0.37550
N1080       N  0.37724756  0.63518671  0.82415112    -0.37560
C1081       C  0.31160817  0.75776348  0.40182408    -0.04220
C1082       C  0.33989232  0.76688786  0.42034892    -0.01340
C1083       C  0.36255286  0.77476475  0.38388238     0.03650
C1084       C  0.35660762  0.77214137  0.32905436    -0.04220
C1085       C  0.32758004  0.75824940  0.31134682    -0.01330
C1086       C  0.30518314  0.75192441  0.34753149     0.03640
C1087       C  0.34560355  0.76762097  0.47664020     0.38300
C1088       C  0.32081295  0.74990029  0.25635412     0.38290
C1089       C  0.27563225  0.73989444  0.32907624     0.36710
C1090       C  0.39196635  0.78556215  0.40254092     0.36710
N1091       N  0.25190992  0.73022664  0.31490250    -0.38110
N1092       N  0.41536280  0.79384378  0.41756557    -0.38110
N1093       N  0.31521004  0.74216680  0.21293007    -0.37550
N1094       N  0.35046070  0.76751381  0.52134546    -0.37560
C1095       C  0.21356618  0.57117050  0.32297792    -0.04220
C1096       C  0.23639619  0.56639168  0.30922679    -0.01340
C1097       C  0.24635314  0.55341073  0.34616448     0.03650
C1098       C  0.23210663  0.54306897  0.39524686    -0.04220
C1099       C  0.21131370  0.55030864  0.41064370    -0.01330
C1100       C  0.20347340  0.56578195  0.37578290     0.03640
C1101       C  0.24998783  0.57487451  0.25765350     0.38300
C1102       C  0.19862706  0.54283105  0.46318337     0.38290
C1103       C  0.18674285  0.57801446  0.39575405     0.36710
C1104       C  0.27126218  0.55082095  0.33353113     0.36710
N1105       N  0.17424230  0.58828147  0.41353383    -0.38110
N1106       N  0.29150703  0.54929397  0.32386339    -0.38110
N1107       N  0.18839930  0.53690791  0.50495327    -0.37550
N1108       N  0.26154303  0.58212265  0.21713169    -0.37560
C1109       C  0.14415615  0.70968953  0.31436547    -0.04220
C1110       C  0.17281925  0.73103553  0.30006162    -0.01340
C1111       C  0.19532079  0.74227463  0.33856070     0.03650
C1112       C  0.19025070  0.72962690  0.38974345    -0.04220
C1113       C  0.16168382  0.70816113  0.40370066    -0.01330
C1114       C  0.13863601  0.70011004  0.36767995     0.03640
C1115       C  0.17963227  0.74069668  0.24549144     0.38300
C1116       C  0.15554653  0.69469834  0.45583235     0.38290
C1117       C  0.10911670  0.68325008  0.38689794     0.36710
C1118       C  0.22371700  0.76641403  0.32481188     0.36710
N1119       N  0.08588856  0.67040080  0.40387748    -0.38110
N1120       N  0.24624782  0.78582602  0.31365555    -0.38110
N1121       N  0.15051662  0.68378326  0.49718624    -0.37550
N1122       N  0.18522311  0.74837715  0.20195995    -0.37560
C1123       C  0.27514467  0.91782461  0.32378679    -0.04220
C1124       C  0.27100850  0.91029806  0.37792865    -0.01340
C1125       C  0.26183247  0.92457565  0.41259209     0.03650
C1126       C  0.25760224  0.94697413  0.39340174    -0.04220
C1127       C  0.25867768  0.95218649  0.33839948    -0.01330
C1128       C  0.26767700  0.93778824  0.30366179     0.03640
C1129       C  0.27722594  0.88863875  0.39813438     0.38300
C1130       C  0.24946597  0.97146282  0.31761037     0.38290
C1131       C  0.27001751  0.94380218  0.24726348     0.36710
C1132       C  0.25648400  0.91598061  0.46779380     0.36710
N1133       N  0.27208463  0.94800673  0.20204685    -0.38110
N1134       N  0.25165602  0.90838326  0.51145873    -0.38110
N1135       N  0.24124266  0.48614538  0.30093712    -0.37550
N1136       N  0.28218957  0.87133101  0.41410652    -0.37560
C1137       C  0.05817636  0.52372977  0.24098608    -0.04220
C1138       C  0.07375200  0.52057736  0.19859600    -0.01340
C1139       C  0.10431119  0.53427851  0.20041919     0.03650
C1140       C  0.12000662  0.55296496  0.24238717    -0.04220
C1141       C  0.10503633  0.55752697  0.28306645    -0.01330
C1142       C  0.07447689  0.54205223  0.28386483     0.03640
C1143       C  0.05921732  0.50502120  0.15086461     0.38300
C1144       C  0.12106065  0.57927740  0.32321559     0.38290
C1145       C  0.06064203  0.04379587  0.33150238     0.36710
C1146       C  0.11976765  0.52942450  0.15851949     0.36710
N1147       N  0.05167196  0.04527660  0.37216044    -0.38110
N1148       N  0.13199573  0.52543256  0.12513620    -0.38110
N1149       N  0.13326338  0.59700815  0.35485545    -0.37550
N1150       N  0.04940729  0.49415520  0.11055291    -0.37560
C1151       C  0.02825628  0.55726776  0.23897355    -0.04220
C1152       C  0.04655565  0.57249444  0.19534258    -0.01340
C1153       C  0.06378323  0.60305675  0.19543949     0.03650
C1154       C  0.06156884  0.61917177  0.23687907    -0.04220
C1155       C  0.04206799  0.60458389  0.27837451    -0.01330
C1156       C  0.02674820  0.57403057  0.28102651     0.03640
C1157       C  0.54673506  0.55759386  0.14796486     0.38300
C1158       C  0.03681333  0.62101871  0.31763327     0.38290
C1159       C  0.01161500  0.56083046  0.32972903     0.36710
C1160       C  0.08383094  0.61801596  0.15238121     0.36710
N1161       N  0.00156834  0.55249153  0.37111953    -0.38110
N1162       N  0.09983604  0.62964587  0.11795972    -0.38110
N1163       N  0.03169386  0.63362650  0.34849064    -0.37550
N1164       N  0.54717529  0.54767002  0.10768294    -0.37560
C1165       C  0.45988448  0.92890964  0.24504426    -0.04220
C1166       C  0.46156163  0.91358906  0.28988247    -0.01340
C1167       C  0.44587298  0.88302971  0.29135963     0.03650
C1168       C  0.42779526  0.86704341  0.24881483    -0.04220
C1169       C  0.42538653  0.88171912  0.20457121    -0.01330
C1170       C  0.44137388  0.91234838  0.20233673     0.03640
C1171       C  0.47794924  0.92846372  0.33672937     0.38300
C1172       C  0.40664709  0.86507664  0.16074769     0.38290
C1173       C  0.44005736  0.92592987  0.15358832     0.36710
C1174       C  0.44887180  0.86788489  0.33669711     0.36710
N1175       N  0.93875838  0.93475028  0.11233592    -0.38110
N1176       N  0.45142248  0.85601693  0.37292166    -0.38110
N1177       N  0.39175417  0.85177999  0.12582439    -0.37550
N1178       N  0.48909439  0.93812715  0.37694641    -0.37560
C1179       C  0.42997499  0.96259503  0.24425823    -0.04220
C1180       C  0.41364543  0.96416371  0.20086683    -0.01340
C1181       C  0.38310674  0.95040935  0.20341344     0.03650
C1182       C  0.36827628  0.93466757  0.24876257    -0.04220
C1183       C  0.38397651  0.93271579  0.29184532    -0.01330
C1184       C  0.41449927  0.94658112  0.28990859     0.03640
C1185       C  0.42735173  0.97821579  0.15163034     0.38300
C1186       C  0.36848901  0.91602391  0.33841605     0.38290
C1187       C  0.42927792  0.94566627  0.33738268     0.36710
C1188       C  0.36670012  0.95221105  0.15895165     0.36710
N1189       N  0.43895969  0.94491929  0.37808257    -0.38110
N1190       N  0.35357297  0.95356180  0.12354512    -0.38110
N1191       N  0.35611333  0.90277861  0.37547121    -0.37550
N1192       N  0.43630821  0.98782155  0.11019187    -0.37560
C1193       C  0.05837031  0.93282926  0.24128051    -0.04220
C1194       C  0.06232420  0.95236751  0.28169708    -0.01340
C1195       C  0.04400945  0.96393104  0.28494145     0.03650
C1196       C  0.02438056  0.95988035  0.24302698    -0.04220
C1197       C  0.02192562  0.94138180  0.20045597    -0.01330
C1198       C  0.03791186  0.92701446  0.20105654     0.03640
C1199       C  0.08641364  0.96194604  0.31861066     0.38300
C1200       C  0.00556305  0.93885909  0.15299483     0.38290
C1201       C  0.03424108  0.90702834  0.15904657     0.36710
C1202       C  0.04488151  0.97844172  0.33356492     0.36710
N1203       N  0.03141140  0.89110763  0.12562559    -0.38110
N1204       N  0.04605518  0.98832160  0.37476579    -0.38110
N1205       N  0.99446758  0.93675346  0.11242858    -0.37550
N1206       N  0.10604010  0.97055146  0.34724909    -0.37560
C1207       C  0.19430907  0.96087589  0.11865019    -0.04220
C1208       C  0.17849554  0.93021011  0.12264246    -0.01340
C1209       C  0.15414305  0.91625321  0.15615082     0.03650
C1210       C  0.14784585  0.93257922  0.19151736    -0.04220
C1211       C  0.16660505  0.96299596  0.19352743    -0.01330
C1212       C  0.18866971  0.97716067  0.15553143     0.03640
C1213       C  0.18598834  0.91264640  0.09045149     0.38300
C1214       C  0.16289663  0.97989866  0.23411378     0.38290
C1215       C  0.20523837  0.00857309  0.15425328     0.36710
C1216       C  0.13405422  0.88548635  0.14963820     0.36710
N1217       N  0.21815600  0.53363968  0.15240515    -0.38110
N1218       N  0.11810626  0.86109376  0.14229651    -0.38110
N1219       N  0.16018974  0.99352034  0.26646118    -0.37550
N1220       N  0.19185191  0.89849867  0.06498639    -0.37560
C1221       C  0.43683397  0.56011712  0.23870311    -0.04220
C1222       C  0.43156777  0.54056485  0.28023918    -0.01340
C1223       C  0.44653807  0.52535028  0.28270103     0.03650
C1224       C  0.46424256  0.52656559  0.23982612    -0.04220
C1225       C  0.46716321  0.54453038  0.19565585    -0.01330
C1226       C  0.45455213  0.56207066  0.19633391     0.03640
C1227       C  0.40967865  0.53511164  0.31955785     0.38300
C1228       C  0.48118881  0.54395352  0.14737602     0.38290
C1229       C  0.45920527  0.58175537  0.15269057     0.36710
C1230       C  0.44513244  0.51092376  0.33209166     0.36710
N1231       N  0.46284922  0.59744494  0.11796736    -0.38110
N1232       N  0.44381796  0.50157680  0.37410113    -0.38110
N1233       N  0.49067811  0.54366156  0.10652805    -0.37550
N1234       N  0.39170788  0.52992077  0.35021924    -0.37560
C1235       C  0.35773286  0.57517370  0.17728139    -0.04220
C1236       C  0.33135176  0.55017727  0.19139589    -0.01340
C1237       C  0.30824069  0.53761554  0.15475211     0.03650
C1238       C  0.31216979  0.54848141  0.10253367    -0.04220
C1239       C  0.33837904  0.57375072  0.08870266    -0.01330
C1240       C  0.36086194  0.58749854  0.12647809     0.03640
C1241       C  0.32883423  0.53608790  0.24199375     0.38300
C1242       C  0.34334353  0.58439245  0.03473810     0.38290
C1243       C  0.38810964  0.61306800  0.11186905     0.36710
C1244       C  0.28042005  0.51329838  0.17045244     0.36710
N1245       N  0.40986431  0.63341111  0.10023937    -0.38110
N1246       N  0.25797539  0.99415143  0.18276810    -0.38110
N1247       N  0.34835036  0.59325187  0.99187324    -0.37550
N1248       N  0.32711985  0.52457283  0.28190522    -0.37560
C1249       C  0.43107654  0.77975678  0.19667264    -0.04220
C1250       C  0.46176134  0.79505564  0.19615230    -0.01340
C1251       C  0.47672639  0.78862985  0.15806903     0.03650
C1252       C  0.46134716  0.76457711  0.12355708    -0.04220
C1253       C  0.43093282  0.74630436  0.13074018    -0.01330
C1254       C  0.41576282  0.75468486  0.16505311     0.03640
C1255       C  0.47812097  0.81775113  0.23479762     0.38300
C1256       C  0.41473113  0.71915508  0.10227521     0.38290
C1257       C  0.38428698  0.73820110  0.16536658     0.36710
C1258       C  0.00798572  0.80744905  0.15455888     0.36710
N1259       N  0.35918297  0.72489202  0.16529290    -0.38110
N1260       N  0.03284380  0.82291346  0.15183253    -0.38110
N1261       N  0.40165927  0.69726880  0.08030805    -0.37550
N1262       N  0.49116992  0.83580954  0.26553039    -0.37560
C1263       C  0.05042670  0.73318238  0.10091218    -0.04220
C1264       C  0.05596450  0.74184287  0.15448577    -0.01340
C1265       C  0.07160856  0.73296817  0.18725167     0.03650
C1266       C  0.08105543  0.71465671  0.16698682    -0.04220
C1267       C  0.07752765  0.70807987  0.11233451    -0.01330
C1268       C  0.06144081  0.71638197  0.07993042     0.03640
C1269       C  0.04292735  0.75718572  0.17729637     0.38300
C1270       C  0.09100329  0.69320542  0.08904776     0.38290
C1271       C  0.05513691  0.70636768  0.02551925     0.36710
C1272       C  0.07757199  0.74222476  0.24199336     0.36710
N1273       N  0.54983673  0.69777588  0.98251187    -0.38110
N1274       N  0.08325739  0.74984920  0.28548285    -0.38110
N1275       N  0.10206841  0.68183624  0.06971563    -0.37550
N1276       N  0.03189180  0.76873296  0.19598256    -0.37560
C1277       C  0.04711740  0.74177018  0.88462625    -0.04220
C1278       C  0.07619577  0.74922318  0.89388389    -0.01340
C1279       C  0.09009476  0.74012890  0.85825589     0.03650
C1280       C  0.07528618  0.72433952  0.81258919    -0.04220
C1281       C  0.04716350  0.71906975  0.80112304    -0.01330
C1282       C  0.03312025  0.72781863  0.83704112     0.03640
C1283       C  0.09126466  0.76462527  0.94168601     0.38300
C1284       C  0.03257223  0.70389288  0.75290410     0.38290
C1285       C  0.00445082  0.72294200  0.82502213     0.36710
C1286       C  0.11886530  0.74534050  0.87051278     0.36710
N1287       N  0.48164911  0.71943007  0.81621578    -0.38110
N1288       N  0.14173481  0.74946364  0.88096716    -0.38110
N1289       N  0.02146898  0.69160729  0.71426483    -0.37550
N1290       N  0.10328367  0.77684673  0.97983411    -0.37560
C1291       C  0.42962030  0.78851351  0.82221055    -0.04220
C1292       C  0.41534654  0.77315436  0.86855046    -0.01340
C1293       C  0.42956692  0.76421463  0.90467272     0.03650
C1294       C  0.45828177  0.77083371  0.89490475    -0.04220
C1295       C  0.47180217  0.78458819  0.84683333    -0.01330
C1296       C  0.45743547  0.79319977  0.81051244     0.03640
C1297       C  0.38676098  0.76828357  0.88081777     0.38300
C1298       C  0.50065654  0.79015519  0.83486220     0.38290
C1299       C  0.47163519  0.80774314  0.76168673     0.36710
C1300       C  0.41526903  0.75006542  0.95359738     0.36710
N1301       N  0.48298060  0.81928266  0.72271038    -0.38110
N1302       N  0.40347429  0.73891287  0.99248646    -0.38110
N1303       N  0.02380760  0.79482626  0.82552540    -0.37550
N1304       N  0.36401685  0.76448321  0.89074630    -0.37560
C1305       C  0.21240643  0.63412956  0.17294677    -0.04220
C1306       C  0.21016021  0.62960454  0.11766634    -0.01340
C1307       C  0.21851818  0.65309866  0.08268720     0.03650
C1308       C  0.23109211  0.68155591  0.10257989    -0.04220
C1309       C  0.23414678  0.68624012  0.15782908    -0.01330
C1310       C  0.22467937  0.66252914  0.19294647     0.03640
C1311       C  0.19889852  0.60063132  0.09679354     0.38300
C1312       C  0.24451159  0.71505238  0.17845963     0.38290
C1313       C  0.22574890  0.66682116  0.24974415     0.36710
C1314       C  0.21219272  0.64760610  0.02659187     0.36710
N1315       N  0.22602709  0.66907565  0.29532941    -0.38110
N1316       N  0.20619797  0.64269518  0.98222427    -0.38110
N1317       N  0.25229298  0.73799092  0.19476082    -0.37550
N1318       N  0.19015692  0.57759389  0.08002415    -0.37560
C1319       C  0.22601675  0.65160918  0.80138522    -0.04220
C1320       C  0.22212769  0.67552341  0.79329100    -0.01340
C1321       C  0.23219104  0.69759772  0.83146358     0.03650
C1322       C  0.24443339  0.69512276  0.87929440    -0.04220
C1323       C  0.25139312  0.67312004  0.88476985    -0.01330
C1324       C  0.24195309  0.65119122  0.84600454     0.03640
C1325       C  0.20678908  0.67690723  0.74673121     0.38300
C1326       C  0.26722025  0.67236003  0.93104412     0.38290
C1327       C  0.24678205  0.62715479  0.85400932     0.36710
C1328       C  0.23176250  0.72389138  0.82066224     0.36710
N1329       N  0.25058143  0.60794046  0.86033412    -0.38110
N1330       N  0.23282836  0.74564816  0.81265153    -0.38110
N1331       N  0.27989145  0.67176655  0.96792326    -0.37550
N1332       N  0.19439575  0.67795829  0.70980929    -0.37560
C1333       C  0.27747347  0.84501134  0.19894600    -0.04220
C1334       C  0.29160488  0.82883253  0.19925781    -0.01340
C1335       C  0.28581261  0.80848153  0.15916046     0.03650
C1336       C  0.26240751  0.80039843  0.12304456    -0.04220
C1337       C  0.24461720  0.81273502  0.12982195    -0.01330
C1338       C  0.25312320  0.83609034  0.16538218     0.03640
C1339       C  0.31293381  0.83377560  0.24016061     0.38300
C1340       C  0.21808057  0.80237819  0.09941510     0.38290
C1341       C  0.23774279  0.85186408  0.16493517     0.36710
C1342       C  0.30540108  0.79743350  0.15406926     0.36710
N1343       N  0.22546550  0.86444579  0.16440800    -0.38110
N1344       N  0.32170824  0.78953930  0.14899552    -0.38110
N1345       N  0.19655928  0.79392753  0.07613362    -0.37550
N1346       N  0.32988770  0.83762222  0.27266683    -0.37560
C1347       C  0.28878631  0.85658216  0.81937313    -0.04220
C1348       C  0.29678105  0.83550676  0.81171126    -0.01340
C1349       C  0.28906456  0.81323827  0.84932283     0.03650
C1350       C  0.27211820  0.81098902  0.89371899    -0.04220
C1351       C  0.26226329  0.83080720  0.89914322    -0.01330
C1352       C  0.27099635  0.85381488  0.86260519     0.03640
C1353       C  0.31340572  0.83698525  0.76545054     0.38300
C1354       C  0.24469933  0.82883330  0.94411763     0.38290
C1355       C  0.26331543  0.87576482  0.87164037     0.36710
C1356       C  0.29877304  0.79270295  0.84245085     0.36710
N1357       N  0.25731276  0.89331011  0.87941180    -0.38110
N1358       N  0.30650404  0.77627221  0.83763708    -0.38110
N1359       N  0.23066935  0.82763841  0.97972096    -0.37550
N1360       N  0.32647132  0.83775449  0.72856178    -0.37560
C1361       C  0.45758933  0.68912109  0.38644846    -0.04220
C1362       C  0.45143680  0.69384735  0.33404921    -0.01340
C1363       C  0.43826800  0.67047755  0.29789848     0.03650
C1364       C  0.42991385  0.64202190  0.31477288    -0.04220
C1365       C  0.43424547  0.63724845  0.36839034    -0.01330
C1366       C  0.44906646  0.66072501  0.40328836     0.03640
C1367       C  0.45984209  0.72292772  0.31664452     0.38300
C1368       C  0.42278380  0.60804209  0.38861071     0.38290
C1369       C  0.45541568  0.65539770  0.45686603     0.36710
C1370       C  0.43436067  0.67602149  0.24303633     0.36710
N1371       N  0.96062202  0.65090415  0.49921851    -0.38110
N1372       N  0.43129013  0.68059673  0.19931770    -0.38110
N1373       N  0.41368294  0.58503302  0.40607561    -0.37550
N1374       N  0.46650953  0.74610652  0.30270256    -0.37560
C1375       C  0.44369206  0.68560830  0.59990609    -0.04220
C1376       C  0.45334821  0.68561012  0.65198624    -0.01340
C1377       C  0.43940664  0.66023871  0.68287063     0.03650
C1378       C  0.41530130  0.63497498  0.66219622    -0.04220
C1379       C  0.40363025  0.63588748  0.61247650    -0.01330
C1380       C  0.41776648  0.66131183  0.58132266     0.03640
C1381       C  0.97698955  0.71207586  0.67421838     0.38300
C1382       C  0.37796816  0.61029134  0.59251834     0.38290
C1383       C  0.40632669  0.66200806  0.52942204     0.36710
C1384       C  0.45019042  0.65961951  0.73550127     0.36710
N1385       N  0.39713003  0.66255959  0.48806248    -0.38110
N1386       N  0.45840727  0.65831825  0.77737823    -0.38110
N1387       N  0.35744561  0.58983117  0.57678866    -0.37550
N1388       N  0.99545176  0.73334836  0.69227810    -0.37560
C1389       C  0.02976925  0.80870363  0.61809789    -0.04220
C1390       C  0.02503974  0.83234237  0.61802681    -0.01340
C1391       C  0.04393448  0.85760915  0.64606692     0.03650
C1392       C  0.06131111  0.85679494  0.68803659    -0.04220
C1393       C  0.06305540  0.83133622  0.69378096    -0.01330
C1394       C  0.04950048  0.80867510  0.65611349     0.03640
C1395       C  0.00059053  0.83116326  0.59027108     0.38300
C1396       C  0.07792030  0.82761911  0.73871294     0.38290
C1397       C  0.05540963  0.78510218  0.65823672     0.36710
C1398       C  0.04652304  0.88464091  0.62824752     0.36710
N1399       N  0.06052994  0.76658194  0.66004130    -0.38110
N1400       N  0.04828759  0.90584661  0.61281450    -0.38110
N1401       N  0.08966090  0.82433798  0.77442089    -0.37550
N1402       N  0.48098211  0.83030491  0.56882275    -0.37560
C1403       C  0.07736574  0.86097843  0.32728357    -0.04220
C1404       C  0.07086517  0.86648918  0.37844234    -0.01340
C1405       C  0.05428437  0.84349414  0.41349899     0.03650
C1406       C  0.04523416  0.81476256  0.39918042    -0.04220
C1407       C  0.05410258  0.80940113  0.35021484    -0.01330
C1408       C  0.07057682  0.83253140  0.31466329     0.03640
C1409       C  0.08133557  0.89600113  0.39553823     0.38300
C1410       C  0.04413215  0.77976091  0.33492822     0.38290
C1411       C  0.08051079  0.82688820  0.26562850     0.36710
C1412       C  0.04628511  0.84987204  0.46393168     0.36710
N1413       N  0.08891931  0.82190731  0.22744478    -0.38110
N1414       N  0.04060493  0.85657927  0.50331936    -0.38110
N1415       N  0.03536064  0.75583571  0.32352760    -0.37550
N1416       N  0.08954529  0.91921125  0.41080197    -0.37560
O1417       O  0.00123265  0.28610522  0.44679632    -0.73310
O1418       O  0.95237777  0.22449105  0.54163624    -0.73340
O1419       O  0.99273548  0.28136593  0.55277299    -0.73400
O1420       O  0.96101057  0.22863891  0.43607637    -0.73450
O1421       O  0.49519371  0.21707776  0.44853353    -0.73380
O1422       O  0.52857990  0.27219448  0.56101987    -0.73360
O1423       O  0.48807133  0.21510779  0.55443766    -0.73330
O1424       O  0.53561759  0.27449479  0.45464713    -0.73400
Ni1425     Ni  0.97564775  0.25560419  0.49387478     1.25410
Ni1426     Ni  0.51312111  0.24433784  0.50493752     1.25360
C1427       C  0.52640370  0.29048953  0.43522028     0.88870
C1428       C  0.96228209  0.20972639  0.56366438     0.88800
C1429       C  0.51612731  0.28595553  0.57581751     0.88830
C1430       C  0.97229597  0.21325908  0.42474616     0.89000
O1431       O  0.73853558  0.27167514  0.94845495    -0.73310
O1432       O  0.71907958  0.20909127  0.04486158    -0.73340
O1433       O  0.73296261  0.26504486  0.05564890    -0.73400
O1434       O  0.72571032  0.21614219  0.93846674    -0.73450
O1435       O  0.77212229  0.22868231  0.94798023    -0.73380
O1436       O  0.77983667  0.27960252  0.06006111    -0.73360
O1437       O  0.76598056  0.22350347  0.05468105    -0.73330
O1438       O  0.78514914  0.28445712  0.95343732    -0.73400
Ni1439     Ni  0.72738538  0.23999847  0.99659693     1.25410
Ni1440     Ni  0.77743146  0.25458954  0.00439942     1.25360
C1441       C  0.76492161  0.28800206  0.93415075     0.88870
C1442       C  0.73920895  0.20603477  0.06566655     0.88800
C1443       C  0.75797058  0.28058182  0.07742996     0.88830
C1444       C  0.74768006  0.21426157  0.92426850     0.89000
O1445       O  0.00852886  0.22042764  0.04813758    -0.73310
O1446       O  0.96410147  0.23810659  0.95146520    -0.73340
O1447       O  0.00635090  0.22475777  0.94189539    -0.73400
O1448       O  0.96676242  0.23446610  0.05883941    -0.73450
O1449       O  0.49978954  0.28140165  0.05997441    -0.73380
O1450       O  0.54117525  0.27125894  0.94777724    -0.73360
O1451       O  0.49893306  0.28470466  0.95264853    -0.73330
O1452       O  0.54187253  0.26741212  0.05456056    -0.73400
Ni1453     Ni  0.98517301  0.22778145  0.99999324     1.25410
Ni1454     Ni  0.52158801  0.27788308  0.00396733     1.25360
C1455       C  0.53259483  0.24084377  0.06668913     0.88870
C1456       C  0.97451187  0.26420046  0.93515068     0.88800
C1457       C  0.53061915  0.24628509  0.92651337     0.88830
C1458       C  0.97673581  0.25975048  0.07880969     0.89000
C1459       C  0.88362771  0.08490253  0.21130911     0.04240
C1460       C  0.89821649  0.06954691  0.20853049    -0.11910
C1461       C  0.92293865  0.07787110  0.23916027     0.01740
C1462       C  0.93354910  0.10203173  0.27223236    -0.10430
C1463       C  0.91891975  0.11751091  0.27631348     0.04240
C1464       C  0.89377302  0.10881376  0.24542859    -0.09850
H1465       H  0.89007930  0.05081279  0.18285733     0.09830
H1466       H  0.95292404  0.10841134  0.29571214     0.07360
H1467       H  0.88203621  0.12026636  0.24828829     0.07210
C1468       C  0.58600568  0.38379588  0.28560134     0.04240
C1469       C  0.61238432  0.39581263  0.25772919    -0.11910
C1470       C  0.62001027  0.41875601  0.22143562     0.01740
C1471       C  0.60118570  0.42950395  0.21373831    -0.10430
C1472       C  0.57551429  0.41820796  0.24238395     0.04240
C1473       C  0.56764313  0.39499269  0.27689306    -0.09850
H1474       H  0.62712143  0.38793861  0.26510916     0.09830
H1475       H  0.60699900  0.44742211  0.18667765     0.07360
H1476       H  0.54762069  0.38643060  0.29899326     0.07210
C1477       C  0.97955166  0.00929445  0.24100395     0.03400
C1478       C  0.51065669  0.02420234  0.24028178     0.03400
C1479       C  0.52516246  0.00791966  0.24080099     0.03400
C1480       C  0.50860426  0.47677346  0.24201561     0.03400
C1481       C  0.97746368  0.46188757  0.24287658     0.03400
C1482       C  0.96295419  0.47819453  0.24252321     0.03400
C1483       C  0.79066821  0.40784038  0.28942171     0.04240
C1484       C  0.82073730  0.42590352  0.28359232    -0.11910
C1485       C  0.83609652  0.41803499  0.24982682     0.01740
C1486       C  0.82118422  0.39259237  0.22044593    -0.10430
C1487       C  0.79132051  0.37334717  0.22769916     0.04240
C1488       C  0.77600772  0.38114379  0.26260194    -0.09850
H1489       H  0.83224224  0.44590471  0.30588993     0.09830
H1490       H  0.83331199  0.38707397  0.19353167     0.07360
H1491       H  0.75303735  0.36667228  0.26911597     0.07210
C1492       C  0.58978043  0.19827644  0.20345088     0.04240
C1493       C  0.57298778  0.16785009  0.20331329    -0.11910
C1494       C  0.57974843  0.15133902  0.23700046     0.01740
C1495       C  0.60349146  0.16528218  0.27150749    -0.10430
C1496       C  0.62016879  0.19574265  0.27394510     0.04240
C1497       C  0.61328910  0.21217774  0.23924481    -0.09850
H1498       H  0.55433725  0.15690853  0.17711872     0.09830
H1499       H  0.60875707  0.15227344  0.29713500     0.07360
H1500       H  0.62586238  0.23560230  0.24054111     0.07210
C1501       C  0.69812113  0.07897151  0.28229183     0.04240
C1502       C  0.71300052  0.10267791  0.24747355    -0.11910
C1503       C  0.69759096  0.10888989  0.20938705     0.01740
C1504       C  0.66727277  0.09212399  0.20749983    -0.10430
C1505       C  0.65220318  0.06901602  0.24248824     0.04240
C1506       C  0.66760942  0.06216750  0.27905148    -0.09850
H1507       H  0.73632496  0.11651739  0.25029749     0.09830
H1508       H  0.65528484  0.09756259  0.17949950     0.07360
H1509       H  0.65570401  0.04388360  0.30553065     0.07210
C1510       C  0.91565477  0.29205371  0.22615636     0.04240
C1511       C  0.92468949  0.32147757  0.21864650    -0.11910
C1512       C  0.91336010  0.33492043  0.24931537     0.01740
C1513       C  0.89086777  0.31832068  0.28465565    -0.10430
C1514       C  0.88047315  0.28860662  0.29093537     0.04240
C1515       C  0.89333070  0.27557642  0.26268176    -0.09850
H1516       H  0.94184702  0.33446995  0.19076545     0.09830
H1517       H  0.88192697  0.32869647  0.30831615     0.07360
H1518       H  0.88629164  0.25301127  0.26976497     0.07210
C1519       C  0.87166087  0.07264696  0.75667234     0.04240
C1520       C  0.89018043  0.06129490  0.76099932    -0.11910
C1521       C  0.91498077  0.07217476  0.72958939     0.01740
C1522       C  0.92195266  0.09512903  0.69485651    -0.10430
C1523       C  0.90430649  0.10734937  0.69141890     0.04240
C1524       C  0.87869853  0.09556471  0.72103747    -0.09850
H1525       H  0.88548542  0.04415027  0.78927567     0.09830
H1526       H  0.94188243  0.10440803  0.67227730     0.07360
H1527       H  0.86499819  0.10494400  0.71781915     0.07210
C1528       C  0.57535728  0.38165866  0.72671141     0.04240
C1529       C  0.60320469  0.39180203  0.74935433    -0.11910
C1530       C  0.61498504  0.41533887  0.78470906     0.01740
C1531       C  0.60101398  0.43093587  0.79253455    -0.10430
C1532       C  0.57422858  0.42181653  0.76921472     0.04240
C1533       C  0.56050198  0.39613194  0.74030148    -0.09850
H1534       H  0.61575077  0.38187623  0.74004443     0.09830
H1535       H  0.61106041  0.45028707  0.81692841     0.07360
H1536       H  0.53859659  0.38842424  0.72615241     0.07210
C1537       C  0.99047100  0.02393163  0.75439831     0.03400
C1538       C  0.97494547  0.49307429  0.76110632     0.03400
C1539       C  0.99033344  0.47782707  0.76519812     0.03400
C1540       C  0.52139053  0.49345947  0.76259575     0.03400
C1541       C  0.53709938  0.02441430  0.75655617     0.03400
C1542       C  0.52159339  0.03974771  0.75304157     0.03400
C1543       C  0.70872411  0.09021040  0.70527002     0.04240
C1544       C  0.72470220  0.11561181  0.73532461    -0.11910
C1545       C  0.71018876  0.12560760  0.76717018     0.01740
C1546       C  0.67982401  0.11019241  0.76853541    -0.10430
C1547       C  0.66377758  0.08507147  0.73857170     0.04240
C1548       C  0.67823541  0.07508720  0.70688348    -0.09850
H1549       H  0.74819494  0.12721926  0.73457496     0.09830
H1550       H  0.66856813  0.11762267  0.79361016     0.07360
H1551       H  0.66581924  0.05533139  0.68424518     0.07210
C1552       C  0.58776368  0.21069822  0.77951425     0.04240
C1553       C  0.57541501  0.18055420  0.78189327    -0.11910
C1554       C  0.58553423  0.16667065  0.74924896     0.01740
C1555       C  0.60838549  0.18314869  0.71426915    -0.10430
C1556       C  0.62102447  0.21337115  0.71180477     0.04240
C1557       C  0.61072602  0.22718688  0.74458256    -0.09850
H1558       H  0.55738004  0.16779039  0.80831471     0.09830
H1559       H  0.61626391  0.17244353  0.68883520     0.07360
H1560       H  0.62037151  0.25049694  0.74270576     0.07210
C1561       C  0.80416289  0.41882304  0.72455633     0.04240
C1562       C  0.78905120  0.39189794  0.75135800    -0.11910
C1563       C  0.80363695  0.38414012  0.78881720     0.01740
C1564       C  0.83336692  0.40264579  0.79774093    -0.10430
C1565       C  0.84847466  0.42888593  0.77072972     0.04240
C1566       C  0.83372050  0.43747495  0.73636824    -0.09850
H1567       H  0.76643505  0.37681643  0.74251946     0.09830
H1568       H  0.84501712  0.39611366  0.82439479     0.07360
H1569       H  0.84594314  0.45809074  0.71605757     0.07210
C1570       C  0.91850881  0.30504539  0.79279229     0.04240
C1571       C  0.93234587  0.33487969  0.80190077    -0.11910
C1572       C  0.92243592  0.35149785  0.77720078     0.01740
C1573       C  0.89765638  0.33816444  0.74519869    -0.10430
C1574       C  0.88442146  0.30859453  0.73223917     0.04240
C1575       C  0.89506191  0.29195079  0.75669097    -0.09850
H1576       H  0.95145368  0.34536108  0.82714473     0.09830
H1577       H  0.88990556  0.35145115  0.72744484     0.07360
H1578       H  0.88574287  0.26926583  0.74717944     0.07210
O1579       O  0.77228801  0.03939881  0.54873984    -0.73310
O1580       O  0.77729250  0.99059080  0.44346452    -0.73340
O1581       O  0.76608064  0.03481876  0.44285090    -0.73400
O1582       O  0.78370723  0.99520993  0.54993154    -0.73450
O1583       O  0.73686812  0.46212942  0.55829802    -0.73380
O1584       O  0.71896448  0.50287451  0.45336889    -0.73360
O1585       O  0.73005716  0.45842977  0.45223807    -0.73330
O1586       O  0.72548757  0.50627080  0.55955351    -0.73400
Ni1587     Ni  0.77653323  0.01609870  0.49592123     1.25410
Ni1588     Ni  0.72615634  0.48131176  0.50618726     1.25360
C1589       C  0.74774647  0.03094353  0.57069599     0.88870
C1590       C  0.75467322  0.46638368  0.43118013     0.88800
C1591       C  0.73948939  0.02589613  0.43178175     0.88830
C1592       C  0.76348021  0.47167635  0.57058220     0.89000
O1593       O  0.76883244  0.03511435  0.93602405    -0.73310
O1594       O  0.71732715  0.99848002  0.05302443    -0.73340
O1595       O  0.77382784  0.04092755  0.04332320    -0.73400
O1596       O  0.71269341  0.99335324  0.94610698    -0.73450
O1597       O  0.72521710  0.45955928  0.95032498    -0.73380
O1598       O  0.78632084  0.50710325  0.04765543    -0.73360
O1599       O  0.73030751  0.46517052  0.05717920    -0.73330
O1600       O  0.78156400  0.50161012  0.94069994    -0.73400
Ni1601     Ni  0.74272953  0.01819503  0.99457716     1.25410
Ni1602     Ni  0.75635413  0.48221608  0.99907275     1.25360
C1603       C  0.78337733  0.02400052  0.91841149     0.88870
C1604       C  0.71520071  0.47569643  0.07436360     0.88800
C1605       C  0.78983826  0.03156165  0.06196609     0.88830
C1606       C  0.70910827  0.46888200  0.93193809     0.89000
O1607       O  0.77335166  0.24215519  0.56633276    -0.73310
O1608       O  0.71620632  0.21957783  0.45604485    -0.73340
O1609       O  0.77216877  0.23196033  0.46168463    -0.73400
O1610       O  0.71734765  0.22959739  0.56130635    -0.73450
O1611       O  0.73138577  0.27573632  0.54350715    -0.73380
O1612       O  0.78759711  0.27863306  0.44617679    -0.73360
O1613       O  0.73147494  0.26593950  0.43837277    -0.73330
O1614       O  0.78729296  0.28834557  0.55111240    -0.73400
Ni1615     Ni  0.74416978  0.22916242  0.51192497     1.25410
Ni1616     Ni  0.76000123  0.27882535  0.49415084     1.25360
C1617       C  0.79018354  0.26913004  0.57639887     0.88870
C1618       C  0.71410342  0.23892457  0.42949915     0.88800
C1619       C  0.78930559  0.25594540  0.43844383     0.88830
C1620       C  0.71513431  0.25202917  0.56840260     0.89000
C1621       C  0.86081833  0.29650923  0.69067502    -0.04220
C1622       C  0.86458933  0.31220921  0.64293995    -0.01340
C1623       C  0.84128449  0.30398284  0.60733917     0.03650
C1624       C  0.81420741  0.27846731  0.61628584    -0.04220
C1625       C  0.81104521  0.26142083  0.66175593    -0.01330
C1626       C  0.83396431  0.27058303  0.69906762     0.03640
C1627       C  0.89286264  0.33642398  0.62853865     0.38300
C1628       C  0.78401875  0.23453766  0.67104840     0.38290
C1629       C  0.82949824  0.25309981  0.74605078     0.36710
C1630       C  0.84601895  0.32138570  0.55991922     0.36710
N1631       N  0.82567818  0.23865408  0.78292588    -0.38110
N1632       N  0.84995552  0.33529452  0.52220629    -0.38110
N1633       N  0.76258550  0.21293239  0.67822394    -0.37550
N1634       N  0.91501934  0.35585650  0.61583233    -0.37560
C1635       C  0.79052849  0.42772836  0.68184005    -0.04220
C1636       C  0.76428593  0.42750286  0.69014244    -0.01340
C1637       C  0.75424761  0.43997194  0.65213658     0.03650
C1638       C  0.77150839  0.45496473  0.60765185    -0.04220
C1639       C  0.79664323  0.45341866  0.59764539    -0.01330
C1640       C  0.80531863  0.43889624  0.63323657     0.03640
C1641       C  0.74773620  0.41521855  0.73817727     0.38300
C1642       C  0.81313336  0.46561512  0.54927992     0.38290
C1643       C  0.82934749  0.43511065  0.61865959     0.36710
C1644       C  0.72605875  0.43709283  0.65915184     0.36710
N1645       N  0.84857394  0.43252393  0.60572582    -0.38110
N1646       N  0.70327548  0.43415851  0.66451060    -0.38110
N1647       N  0.82626137  0.97519783  0.51074156    -0.37550
N1648       N  0.73403104  0.40530815  0.77599439    -0.37560
C1649       C  0.64604109  0.23021838  0.67611567    -0.04220
C1650       C  0.67444322  0.24182048  0.69605071    -0.01340
C1651       C  0.69784560  0.25080103  0.66083389     0.03650
C1652       C  0.69292389  0.24982638  0.60569216    -0.04220
C1653       C  0.66538357  0.24315696  0.58653023    -0.01330
C1654       C  0.64164875  0.23220634  0.62149804     0.03640
C1655       C  0.67904810  0.24433603  0.75279462     0.38300
C1656       C  0.66161906  0.24802599  0.53127378     0.38290
C1657       C  0.61270991  0.22260445  0.60144348     0.36710
C1658       C  0.72691176  0.26118123  0.68097520     0.36710
N1659       N  0.58958958  0.21495664  0.58555821    -0.38110
N1660       N  0.75023761  0.26981605  0.69676054    -0.38110
N1661       N  0.65859777  0.25261882  0.48754386    -0.37550
N1662       N  0.68151824  0.24651965  0.79835491    -0.37560
C1663       C  0.72360325  0.07819482  0.67398121    -0.04220
C1664       C  0.72433234  0.05376818  0.69308101    -0.01340
C1665       C  0.73523337  0.04010831  0.66087582     0.03650
C1666       C  0.74422016  0.04992448  0.60873945    -0.04220
C1667       C  0.74596512  0.07586775  0.59136027    -0.01330
C1668       C  0.73560938  0.08997109  0.62396373     0.03640
C1669       C  0.71306054  0.04239988  0.74533103     0.38300
C1670       C  0.75752969  0.08752774  0.53939103     0.38290
C1671       C  0.73601335  0.11578363  0.60515477     0.36710
C1672       C  0.73845047  0.51663823  0.68144928     0.36710
N1673       N  0.73630327  0.13639863  0.59032612    -0.38110
N1674       N  0.74199140  0.49833667  0.69700002    -0.38110
N1675       N  0.76690121  0.09696441  0.49803922    -0.37550
N1676       N  0.70365495  0.03373149  0.78699867    -0.37560
C1677       C  0.57008213  0.04080748  0.75251254    -0.04220
C1678       C  0.58423004  0.05593189  0.70521423    -0.01340
C1679       C  0.61473725  0.07018383  0.70067327     0.03650
C1680       C  0.63163346  0.06896247  0.74229506    -0.04220
C1681       C  0.61808510  0.05391234  0.78904361    -0.01330
C1682       C  0.58773223  0.04051654  0.79477446     0.03640
C1683       C  0.56791680  0.05495035  0.65856269     0.38300
C1684       C  0.63563297  0.05218826  0.83154889     0.38290
C1685       C  0.57572719  0.02792147  0.84581613     0.36710
C1686       C  0.62893843  0.08623177  0.65283172     0.36710
N1687       N  0.56839518  0.51939411  0.88843972    -0.38110
N1688       N  0.64034024  0.09904789  0.61479654    -0.38110
N1689       N  0.64965086  0.05081026  0.86527692    -0.37550
N1690       N  0.55654164  0.05377272  0.61873062    -0.37560
C1691       C  0.53835546  0.07268948  0.75106859    -0.04220
C1692       C  0.55617836  0.08881923  0.79467673    -0.01340
C1693       C  0.57256455  0.11940455  0.79307337     0.03650
C1694       C  0.57048993  0.13452213  0.74914630    -0.04220
C1695       C  0.55244734  0.11900641  0.70629461    -0.01330
C1696       C  0.53682594  0.08841929  0.70664784     0.03640
C1697       C  0.55549561  0.07459730  0.84403728     0.38300
C1698       C  0.54948101  0.13474954  0.66188460     0.38290
C1699       C  0.02039446  0.07422701  0.65946954     0.36710
C1700       C  0.59141448  0.13548976  0.83715053     0.36710
N1701       N  0.00904101  0.06554513  0.61899845    -0.38110
N1702       N  0.60647878  0.14833973  0.87221461    -0.38110
N1703       N  0.54707058  0.14728049  0.62661499    -0.37550
N1704       N  0.55440077  0.06465605  0.88538030    -0.37560
C1705       C  0.97363427  0.44494160  0.77036448    -0.04220
C1706       C  0.95545111  0.43067462  0.81478704    -0.01340
C1707       C  0.93816661  0.40014233  0.81660898     0.03650
C1708       C  0.94081473  0.38342221  0.77708526    -0.04220
C1709       C  0.96075543  0.39706876  0.73585239    -0.01330
C1710       C  0.97551580  0.42738173  0.73039105     0.03640
C1711       C  0.95525985  0.44653896  0.86067972     0.38300
C1712       C  0.96617569  0.37975568  0.69877970     0.38290
C1713       C  0.98985363  0.43933832  0.68047846     0.36710
C1714       C  0.91791133  0.38574935  0.85967960     0.36710
N1715       N  0.49920015  0.44664129  0.63833576    -0.38110
N1716       N  0.90171137  0.37421747  0.89390987    -0.38110
N1717       N  0.97084882  0.36609306  0.66960292    -0.37550
N1718       N  0.95480810  0.45739486  0.89982768    -0.37560
C1719       C  0.94202847  0.47647009  0.76394893    -0.04220
C1720       C  0.92489296  0.45521690  0.72536111    -0.01340
C1721       C  0.89461256  0.43837208  0.73064226     0.03650
C1722       C  0.88049289  0.44476656  0.77023111    -0.04220
C1723       C  0.89679252  0.46627841  0.80776905    -0.01330
C1724       C  0.92740357  0.48118176  0.80617769     0.03640
C1725       C  0.93719883  0.45108916  0.67782809     0.38300
C1726       C  0.88192893  0.47252337  0.84877320     0.38290
C1727       C  0.94317282  0.99933006  0.85075518     0.36710
C1728       C  0.87786423  0.41398778  0.69536190     0.36710
N1729       N  0.95438104  0.01232827  0.88873524    -0.38110
N1730       N  0.86480957  0.39441926  0.66749671    -0.38110
N1731       N  0.87000731  0.47749509  0.88134077    -0.37550
N1732       N  0.94444569  0.44678074  0.63755376    -0.37560
C1733       C  0.56218190  0.44112451  0.76946267    -0.04220
C1734       C  0.54602808  0.44139025  0.81256041    -0.01340
C1735       C  0.53464719  0.45998593  0.81205639     0.03650
C1736       C  0.53733837  0.47687427  0.76625608    -0.04220
C1737       C  0.55411522  0.47642886  0.72318540    -0.01330
C1738       C  0.56753161  0.45974238  0.72619082     0.03640
C1739       C  0.54140722  0.42258636  0.85765974     0.38300
C1740       C  0.05566816  0.49026057  0.67295076     0.38290
C1741       C  0.58703628  0.46171359  0.68444210     0.36710
C1742       C  0.52166932  0.96248000  0.86037527     0.36710
N1743       N  0.60279310  0.46354778  0.65147560    -0.38830
N1744       N  0.51291751  0.96442626  0.90094715    -0.38110
N1745       N  0.05701259  0.49903971  0.63043129    -0.37550
N1746       N  0.53779005  0.40749570  0.89340099    -0.37560
C1747       C  0.64107525  0.42364806  0.81737430    -0.04220
C1748       C  0.63711678  0.41354308  0.87015430    -0.01340
C1749       C  0.65948543  0.42805567  0.90775762     0.03650
C1750       C  0.68647293  0.45169907  0.89207808    -0.04220
C1751       C  0.69096160  0.46072081  0.83856902    -0.01330
C1752       C  0.66813250  0.44702641  0.80142822     0.03640
C1753       C  0.60900531  0.38979223  0.88669541     0.38300
C1754       C  0.71844855  0.48547881  0.82293270     0.38290
C1755       C  0.67137581  0.45841791  0.74806762     0.36710
C1756       C  0.65332443  0.42073764  0.96327377     0.36710
N1757       N  0.67319105  0.46730358  0.70549000    -0.38110
N1758       N  0.64718932  0.41481817  0.00726296    -0.38110
N1759       N  0.74037849  0.00559664  0.81147463    -0.37550
N1760       N  0.58653399  0.37094482  0.89969132    -0.37560
C1761       C  0.97324724  0.03900871  0.74621602    -0.04220
C1762       C  0.97296710  0.05820271  0.78457445    -0.01340
C1763       C  0.95396982  0.06903032  0.77878129     0.03650
C1764       C  0.93486874  0.06075849  0.73530043    -0.04220
C1765       C  0.93541458  0.04248163  0.69635734    -0.01330
C1766       C  0.95488574  0.03223348  0.70100784     0.03640
C1767       C  0.99057853  0.06608776  0.83206916     0.38300
C1768       C  0.91556248  0.03394721  0.65156998     0.38290
C1769       C  0.95718513  0.01647610  0.65682514     0.36710
C1770       C  0.95377682  0.08860366  0.81811911     0.36710
N1771       N  0.95937397  0.00554697  0.61920079    -0.38110
N1772       N  0.95357509  0.10413155  0.84950429    -0.38110
N1773       N  0.89963733  0.02709467  0.61604597    -0.37550
N1774       N  0.00293824  0.07306784  0.87203897    -0.37560
C1775       C  0.84575072  0.06092004  0.79171136    -0.04220
C1776       C  0.84155951  0.07926767  0.82591049    -0.01340
C1777       C  0.81895714  0.06727728  0.86346533     0.03650
C1778       C  0.80268834  0.03688249  0.87148554    -0.04220
C1779       C  0.80573629  0.01864610  0.83495158    -0.01330
C1780       C  0.82623003  0.03071864  0.79393315     0.03640
C1781       C  0.86139699  0.11038557  0.82486980     0.38300
C1782       C  0.78733543  0.98735836  0.83840970     0.38290
C1783       C  0.82702244  0.01207236  0.75337542     0.36710
C1784       C  0.81291485  0.08645104  0.89385797     0.36710
N1785       N  0.82762675  0.99744505  0.72055025    -0.38110
N1786       N  0.80795698  0.10186444  0.91741630    -0.38110
N1787       N  0.77270549  0.46243398  0.84132860    -0.37550
N1788       N  0.87724777  0.13519612  0.82421482    -0.37560
C1789       C  0.81159068  0.25776927  0.40180505    -0.04220
C1790       C  0.83987539  0.26689762  0.42033168    -0.01340
C1791       C  0.86253617  0.27477248  0.38386653     0.03650
C1792       C  0.85659142  0.27214558  0.32903810    -0.04220
C1793       C  0.82756376  0.25825124  0.31133008    -0.01330
C1794       C  0.80516619  0.25192657  0.34751321     0.03640
C1795       C  0.84558721  0.26763788  0.47662396     0.38300
C1796       C  0.82079710  0.24989916  0.25633871     0.38290
C1797       C  0.77561497  0.23989330  0.32905729     0.36710
C1798       C  0.89194918  0.28556960  0.40252726     0.36710
N1799       N  0.75189221  0.23022293  0.31488417    -0.38110
N1800       N  0.91534490  0.29385016  0.41755490    -0.38110
N1801       N  0.81519437  0.24216325  0.21291593    -0.37550
N1802       N  0.85044499  0.26753720  0.52133052    -0.37560
C1803       C  0.71355611  0.07116370  0.32296791    -0.04220
C1804       C  0.73638783  0.06638717  0.30921811    -0.01340
C1805       C  0.74634901  0.05341187  0.34615969     0.03650
C1806       C  0.73210142  0.04306800  0.39524061    -0.04220
C1807       C  0.71130457  0.05030302  0.41063420    -0.01330
C1808       C  0.70346284  0.06577478  0.37577254     0.03640
C1809       C  0.74997504  0.07486406  0.25764032     0.38300
C1810       C  0.69861548  0.04282268  0.46317178     0.38290
C1811       C  0.68672984  0.07800487  0.39574246     0.36710
C1812       C  0.77126435  0.05083163  0.33353293     0.36710
N1813       N  0.67422716  0.08826989  0.41352113    -0.38110
N1814       N  0.79151467  0.04931323  0.32387106    -0.38110
N1815       N  0.68838573  0.03689730  0.50493997    -0.37550
N1816       N  0.76152569  0.08210646  0.21711369    -0.37560
C1817       C  0.64413883  0.20967963  0.31432761    -0.04220
C1818       C  0.67280227  0.23102787  0.30003017    -0.01340
C1819       C  0.69530161  0.24226701  0.33853374     0.03650
C1820       C  0.69023001  0.22961697  0.38971479    -0.04220
C1821       C  0.66166344  0.20814711  0.40366450    -0.01330
C1822       C  0.63861693  0.20009637  0.36764039     0.03640
C1823       C  0.67961828  0.24069128  0.24546169     0.38300
C1824       C  0.65552495  0.19467953  0.45579202     0.38290
C1825       C  0.60909704  0.18323290  0.38685420     0.36710
C1826       C  0.72369750  0.26640883  0.32479072     0.36710
N1827       N  0.58586848  0.17038037  0.40383107    -0.38110
N1828       N  0.74622807  0.28582261  0.31363875    -0.38110
N1829       N  0.65049411  0.18376063  0.49714253    -0.37550
N1830       N  0.68521140  0.24837343  0.20193148    -0.37560
C1831       C  0.77515100  0.41782378  0.32378942    -0.04220
C1832       C  0.77102997  0.41030675  0.37793592    -0.01340
C1833       C  0.76185638  0.42458506  0.41260240     0.03650
C1834       C  0.75761331  0.44697500  0.39340991    -0.04220
C1835       C  0.75867366  0.45217723  0.33840539    -0.01330
C1836       C  0.76766992  0.43777748  0.30366454     0.03640
C1837       C  0.77725875  0.38865529  0.39814181     0.38300
C1838       C  0.74945142  0.47144564  0.31761801     0.38290
C1839       C  0.76999259  0.44377923  0.24726249     0.36710
C1840       C  0.75652251  0.41599852  0.46780941     0.36710
N1841       N  0.77204450  0.44797386  0.20204274    -0.38110
N1842       N  0.75170599  0.40840708  0.51147865    -0.38110
N1843       N  0.74125825  0.98616246  0.30093355    -0.37550
N1844       N  0.78223098  0.37135354  0.41411411    -0.37560
C1845       C  0.55816862  0.02372910  0.24096658    -0.04220
C1846       C  0.57374530  0.02057668  0.19857824    -0.01340
C1847       C  0.60430442  0.03427756  0.20040421     0.03650
C1848       C  0.61999887  0.05296371  0.24237308    -0.04220
C1849       C  0.60502772  0.05752617  0.28305010    -0.01330
C1850       C  0.57446822  0.04205193  0.28384558     0.03640
C1851       C  0.55921188  0.00501935  0.15084706     0.38300
C1852       C  0.62105130  0.07927573  0.32320096     0.38290
C1853       C  0.56065069  0.54379468  0.33152576     0.36710
C1854       C  0.61976184  0.02942293  0.15850714     0.36710
N1855       N  0.55168246  0.54527822  0.37218393    -0.38110
N1856       N  0.63199065  0.02543042  0.12512605    -0.38110
N1857       N  0.63325360  0.09700572  0.35484228    -0.37550
N1858       N  0.54940331  0.99415201  0.11053557    -0.37560
C1859       C  0.52824330  0.05726232  0.23895103    -0.04220
C1860       C  0.54653880  0.07248654  0.19531447    -0.01340
C1861       C  0.56376372  0.10304906  0.19540248     0.03650
C1862       C  0.56154923  0.11916633  0.23683770    -0.04220
C1863       C  0.54205034  0.10458052  0.27833664    -0.01330
C1864       C  0.52673505  0.07402757  0.28099934     0.03640
C1865       C  0.04672294  0.05759282  0.14794166     0.38300
C1866       C  0.53679267  0.12101690  0.31758732     0.38290
C1867       C  0.51160647  0.06083139  0.32970740     0.36710
C1868       C  0.58380872  0.11800590  0.15233970     0.36710
N1869       N  0.50156337  0.05249666  0.37110164    -0.38110
N1870       N  0.59981171  0.12963363  0.11791445    -0.38110
N1871       N  0.53167051  0.13362589  0.34843755    -0.37550
N1872       N  0.04716018  0.04766755  0.10765950    -0.37560
C1873       C  0.95988711  0.42891517  0.24504880    -0.04220
C1874       C  0.96155838  0.41359072  0.28988618    -0.01340
C1875       C  0.94586512  0.38303129  0.29135867     0.03650
C1876       C  0.92778814  0.36704869  0.24881018    -0.04220
C1877       C  0.92538513  0.38172856  0.20456737    -0.01330
C1878       C  0.94137776  0.41235781  0.20233707     0.03640
C1879       C  0.97794487  0.42846136  0.33673659     0.38300
C1880       C  0.90664576  0.36509040  0.16074062     0.38290
C1881       C  0.94006828  0.42594341  0.15358868     0.36710
C1882       C  0.94885893  0.36788277  0.33669515     0.36710
N1883       N  0.43877983  0.43476351  0.11234132    -0.38110
N1884       N  0.95140634  0.35601271  0.37291967    -0.38110
N1885       N  0.89175277  0.35179717  0.12581481    -0.37550
N1886       N  0.98908884  0.43812087  0.37695625    -0.37560
C1887       C  0.92998287  0.46260459  0.24426353    -0.04220
C1888       C  0.91365363  0.46417254  0.20087070    -0.01340
C1889       C  0.88311452  0.45041522  0.20341385     0.03650
C1890       C  0.86828342  0.43467220  0.24876159    -0.04220
C1891       C  0.88398358  0.43272261  0.29184689    -0.01330
C1892       C  0.91450662  0.44659047  0.28991322     0.03640
C1893       C  0.92736048  0.47822711  0.15163623     0.38300
C1894       C  0.86849591  0.41603041  0.33841711     0.38290
C1895       C  0.92928537  0.44567866  0.33738971     0.36710
C1896       C  0.86670813  0.45221521  0.15894986     0.36710
N1897       N  0.93896830  0.44493518  0.37809049    -0.38110
N1898       N  0.85358119  0.45356453  0.12354150    -0.38110
N1899       N  0.85612027  0.40278491  0.37547210    -0.37550
N1900       N  0.93631662  0.48783486  0.11019868    -0.37560
C1901       C  0.55837970  0.43283152  0.24132299    -0.04220
C1902       C  0.56232689  0.45236615  0.28174244    -0.01340
C1903       C  0.54400976  0.46392754  0.28498034     0.03650
C1904       C  0.52438390  0.45987682  0.24306004    -0.04220
C1905       C  0.52193304  0.44137895  0.20049081    -0.01330
C1906       C  0.53792307  0.42701548  0.20109495     0.03640
C1907       C  0.58641274  0.46194449  0.31866424     0.38300
C1908       C  0.50557103  0.43885279  0.15302726     0.38290
C1909       C  0.53425926  0.40703305  0.15908260     0.36710
C1910       C  0.54487626  0.47843692  0.33360218     0.36710
N1911       N  0.53143559  0.39111556  0.12565968    -0.38110
N1912       N  0.54604408  0.48831586  0.37480146    -0.38110
N1913       N  0.49447660  0.43674315  0.11245837    -0.37550
N1914       N  0.60603645  0.47054999  0.34730930    -0.37560
C1915       C  0.69431937  0.46089470  0.11866464    -0.04220
C1916       C  0.67849746  0.43022817  0.12263721    -0.01340
C1917       C  0.65414866  0.41627159  0.15615321     0.03650
C1918       C  0.64786147  0.43259671  0.19154011    -0.04220
C1919       C  0.66662433  0.46301249  0.19355935    -0.01330
C1920       C  0.68868657  0.47717831  0.15555968     0.03640
C1921       C  0.68597411  0.41266388  0.09041065     0.38300
C1922       C  0.66292076  0.47991295  0.23415722     0.38290
C1923       C  0.70525649  0.50859058  0.15428662     0.36710
C1924       C  0.63405128  0.38550720  0.14962736     0.36710
N1925       N  0.71813917  0.03362087  0.15236863    -0.38110
N1926       N  0.61809481  0.36111722  0.14227721    -0.38110
N1927       N  0.66021664  0.49353192  0.26651408    -0.37550
N1928       N  0.69182448  0.39851570  0.06491663    -0.37560
C1929       C  0.93681238  0.06010338  0.23871078    -0.04220
C1930       C  0.93155362  0.04055288  0.28024657    -0.01340
C1931       C  0.94652879  0.02534288  0.28270082     0.03650
C1932       C  0.96423212  0.02656196  0.23982072    -0.04220
C1933       C  0.96714805  0.04452720  0.19565412    -0.01330
C1934       C  0.95453120  0.06206228  0.19633854     0.03640
C1935       C  0.90966807  0.03509748  0.31957431     0.38300
C1936       C  0.98117527  0.04395666  0.14737187     0.38290
C1937       C  0.95918005  0.08174808  0.15269940     0.36710
C1938       C  0.94512979  0.01091710  0.33208903     0.36710
N1939       N  0.96282083  0.09743874  0.11797990    -0.38110
N1940       N  0.94382155  0.00157026  0.37409641    -0.38110
N1941       N  0.99066600  0.04367031  0.10652221    -0.37550
N1942       N  0.89170050  0.02990491  0.35024388    -0.37560
C1943       C  0.85770408  0.07515277  0.17729345    -0.04220
C1944       C  0.83132191  0.05015656  0.19140324    -0.01340
C1945       C  0.80821139  0.03759922  0.15475786     0.03650
C1946       C  0.81214215  0.04846910  0.10254221    -0.04220
C1947       C  0.83835219  0.07373907  0.08871718    -0.01330
C1948       C  0.86083458  0.08748254  0.12649456     0.03640
C1949       C  0.82880259  0.03606307  0.24199716     0.38300
C1950       C  0.84331865  0.08438589  0.03475621     0.38290
C1951       C  0.88808354  0.11305205  0.11189071     0.36710
C1952       C  0.78039004  0.01328139  0.17045240     0.36710
N1953       N  0.90983923  0.13339497  0.10026481    -0.38110
N1954       N  0.75800125  0.49416550  0.18277994    -0.38110
N1955       N  0.84832841  0.09325058  0.99189508    -0.37550
N1956       N  0.82708680  0.02454498  0.28190568    -0.37560
C1957       C  0.93105092  0.27975643  0.19663422    -0.04220
C1958       C  0.96173571  0.29505198  0.19611241    -0.01340
C1959       C  0.97669838  0.28862491  0.15802598     0.03650
C1960       C  0.96131674  0.26457397  0.12351070    -0.04220
C1961       C  0.93090204  0.24630466  0.13069305    -0.01330
C1962       C  0.91573457  0.25468640  0.16501057     0.03640
C1963       C  0.97809816  0.31774513  0.23476041     0.38300
C1964       C  0.91469841  0.21915522  0.10222998     0.38290
C1965       C  0.88425879  0.23820488  0.16532713     0.36710
C1966       C  0.50797394  0.30746295  0.15454607     0.36710
N1967       N  0.85915477  0.22489712  0.16525571    -0.38110
N1968       N  0.53283129  0.32293150  0.15181788    -0.38110
N1969       N  0.90162501  0.19726654  0.08027100    -0.37550
N1970       N  0.99114964  0.33580184  0.26549472    -0.37560
C1971       C  0.55041663  0.23318868  0.10087753    -0.04220
C1972       C  0.55597292  0.24186134  0.15444370    -0.01340
C1973       C  0.57161629  0.23298266  0.18720286     0.03650
C1974       C  0.58104408  0.21465511  0.16694011    -0.04220
C1975       C  0.57750224  0.20806955  0.11229100    -0.01330
C1976       C  0.56141672  0.21637641  0.07989357     0.03640
C1977       C  0.54295883  0.25722567  0.17725561     0.38300
C1978       C  0.59096514  0.19318428  0.08899838     0.38290
C1979       C  0.55510411  0.20635956  0.02548447     0.36710
C1980       C  0.57760267  0.24225602  0.24193349     0.36710
N1981       N  0.04977782  0.19774449  0.98250508    -0.38110
N1982       N  0.58330861  0.24989466  0.28541230    -0.38110
N1983       N  0.60202022  0.18180672  0.06966012    -0.37550
N1984       N  0.53194304  0.26879169  0.19594443    -0.37560
C1985       C  0.54710921  0.24177598  0.88461998    -0.04220
C1986       C  0.57618878  0.24923469  0.89388839    -0.01340
C1987       C  0.59009222  0.24013683  0.85827772     0.03650
C1988       C  0.57528598  0.22433517  0.81262026    -0.04220
C1989       C  0.54716052  0.21905472  0.80114545    -0.01330
C1990       C  0.53311296  0.22780804  0.83704454     0.03640
C1991       C  0.59125367  0.26464397  0.94168781     0.38300
C1992       C  0.53257170  0.20386163  0.75293696     0.38290
C1993       C  0.50443885  0.22291635  0.82501687     0.36710
C1994       C  0.61886538  0.24535794  0.87054323     0.36710
N1995       N  0.98167063  0.21949368  0.81615084    -0.38110
N1996       N  0.64173704  0.24948848  0.88100272    -0.38110
N1997       N  0.52147393  0.19156219  0.71430567    -0.37550
N1998       N  0.60326923  0.27687070  0.97983431    -0.37560
C1999       C  0.92962311  0.28851909  0.82213577    -0.04220
C2000       C  0.91532199  0.27310111  0.86841309    -0.01340
C2001       C  0.92953600  0.26415151  0.90453077     0.03650
C2002       C  0.95827453  0.27082560  0.89482987    -0.04220
C2003       C  0.97182337  0.28463487  0.84681022    -0.01330
C2004       C  0.95746261  0.29325374  0.81048935     0.03640
C2005       C  0.88671381  0.26818240  0.88063493     0.38300
C2006       C  0.00069839  0.29024511  0.83488663     0.38290
C2007       C  0.97169380  0.30785408  0.76172029     0.36710
C2008       C  0.91520015  0.24992797  0.95338421     0.36710
N2009       N  0.98306906  0.31943970  0.72279292    -0.38110
N2010       N  0.90337371  0.23871144  0.99221296    -0.38110
N2011       N  0.52373028  0.29473191  0.82537779    -0.37550
N2012       N  0.86395236  0.26434406  0.89053491    -0.37560
C2013       C  0.71240213  0.13412631  0.17294006    -0.04220
C2014       C  0.71015650  0.12960135  0.11765967    -0.01340
C2015       C  0.71851584  0.15309566  0.08268068     0.03650
C2016       C  0.73109058  0.18155285  0.10257376    -0.04220
C2017       C  0.73414468  0.18623705  0.15782283    -0.01330
C2018       C  0.72467638  0.16252597  0.19294011     0.03640
C2019       C  0.69889389  0.10062801  0.09678674     0.38300
C2020       C  0.74450928  0.21504950  0.17845242     0.38290
C2021       C  0.72574675  0.16681803  0.24973782     0.36710
C2022       C  0.71219025  0.14760337  0.02658532     0.36710
N2023       N  0.72602588  0.16907253  0.29532318    -0.38110
N2024       N  0.70619524  0.14269263  0.98221777    -0.38110
N2025       N  0.75229063  0.23798866  0.19475040    -0.37550
N2026       N  0.69015162  0.07759051  0.08001712    -0.37560
C2027       C  0.72601607  0.15161142  0.80137506    -0.04220
C2028       C  0.72212543  0.17552472  0.79328287    -0.01340
C2029       C  0.73218552  0.19759710  0.83145844     0.03650
C2030       C  0.74442831  0.19512206  0.87928878    -0.04220
C2031       C  0.75138974  0.17312036  0.88476234    -0.01330
C2032       C  0.74195121  0.15119254  0.84599537     0.03640
C2033       C  0.70678744  0.17690887  0.74672226     0.38300
C2034       C  0.76721676  0.17236005  0.93103662     0.38290
C2035       C  0.74677986  0.12715587  0.85399989     0.36710
C2036       C  0.73175181  0.22388829  0.82066011     0.36710
N2037       N  0.75057878  0.10794128  0.86032506    -0.38110
N2038       N  0.73281222  0.24564238  0.81264822    -0.38110
N2039       N  0.77988786  0.17176633  0.96791574    -0.37550
N2040       N  0.69439441  0.17795987  0.70979982    -0.37560
C2041       C  0.77748083  0.34501449  0.19893993    -0.04220
C2042       C  0.79161287  0.32883627  0.19924929    -0.01340
C2043       C  0.78581807  0.30848339  0.15915423     0.03650
C2044       C  0.76240965  0.30039733  0.12304472    -0.04220
C2045       C  0.74461899  0.31273318  0.12982649    -0.01330
C2046       C  0.75312771  0.33609091  0.16538223     0.03640
C2047       C  0.81294430  0.33378106  0.24014801     0.38300
C2048       C  0.71807862  0.30237250  0.09942974     0.38290
C2049       C  0.73774675  0.35186410  0.16493665     0.36710
C2050       C  0.80540747  0.29743672  0.15405835     0.36710
N2051       N  0.72546899  0.36444534  0.16441043    -0.38110
N2052       N  0.82171570  0.28954415  0.14898051    -0.38110
N2053       N  0.69655439  0.29391873  0.07615657    -0.37550
N2054       N  0.82990015  0.33762904  0.27265104    -0.37560
C2055       C  0.78878300  0.35659174  0.81940373    -0.04220
C2056       C  0.79677417  0.33551491  0.81172652    -0.01340
C2057       C  0.78905549  0.31324127  0.84932744     0.03650
C2058       C  0.77211201  0.31099013  0.89372925    -0.04220
C2059       C  0.76225919  0.33080929  0.89916689    -0.01330
C2060       C  0.77099289  0.35382062  0.86263762     0.03640
C2061       C  0.81339631  0.33699622  0.76546036     0.38300
C2062       C  0.74469677  0.32883242  0.94414587     0.38290
C2063       C  0.76331124  0.37576940  0.87168146     0.36710
C2064       C  0.79875834  0.29270245  0.84243809     0.36710
N2065       N  0.75730762  0.39331360  0.87945760    -0.38110
N2066       N  0.80648474  0.27626893  0.83760825    -0.38110
N2067       N  0.73066802  0.32763543  0.97975287    -0.37550
N2068       N  0.82645890  0.33776563  0.72856691    -0.37560
C2069       C  0.95756995  0.18910575  0.38644197    -0.04220
C2070       C  0.95141171  0.19383045  0.33404613    -0.01340
C2071       C  0.93823796  0.17045909  0.29789960     0.03650
C2072       C  0.92988428  0.14200395  0.31477688    -0.04220
C2073       C  0.93421776  0.13723193  0.36839367    -0.01330
C2074       C  0.94904483  0.16070978  0.40328586     0.03640
C2075       C  0.95981721  0.22291068  0.31664006     0.38300
C2076       C  0.92275270  0.10802590  0.38861846     0.38290
C2077       C  0.95540038  0.15538415  0.45685996     0.36710
C2078       C  0.93432555  0.17600100  0.24303898     0.36710
N2079       N  0.46060180  0.15088458  0.49922201    -0.38110
N2080       N  0.93125096  0.18057514  0.19932184    -0.38110
N2081       N  0.91364870  0.08501703  0.40608646    -0.37550
N2082       N  0.96648466  0.24608941  0.30269763    -0.37560
C2083       C  0.94372220  0.18561313  0.59991537    -0.04220
C2084       C  0.95338314  0.18562541  0.65199520    -0.01340
C2085       C  0.93943903  0.16026212  0.68290099     0.03650
C2086       C  0.91532612  0.13499739  0.66224728    -0.04220
C2087       C  0.90364908  0.13590300  0.61252987    -0.01330
C2088       C  0.91778798  0.16131896  0.58135529     0.03640
C2089       C  0.47704178  0.21205606  0.67420048     0.38300
C2090       C  0.87797715  0.11030813  0.59259608     0.38290
C2091       C  0.90633972  0.16200973  0.52946024     0.36710
C2092       C  0.95022637  0.15965185  0.73553272     0.36710
N2093       N  0.89713600  0.16255731  0.48810568    -0.38110
N2094       N  0.95844525  0.15835712  0.77741161    -0.38110
N2095       N  0.85744642  0.08984922  0.57688633    -0.37550
N2096       N  0.49551754  0.23332410  0.69224810    -0.37560
C2097       C  0.52982859  0.30869788  0.61805501    -0.04220
C2098       C  0.52511045  0.33234259  0.61795981    -0.01340
C2099       C  0.54403903  0.35762615  0.64591447     0.03650
C2100       C  0.56140660  0.35682092  0.68790650    -0.04220
C2101       C  0.56313719  0.33135603  0.69369887    -0.01330
C2102       C  0.54957111  0.30868048  0.65605784     0.03640
C2103       C  0.50062942  0.33114720  0.59030212     0.38300
C2104       C  0.57799436  0.32764514  0.73864993     0.38290
C2105       C  0.55547366  0.28510366  0.65820311     0.36710
C2106       C  0.54668057  0.38466119  0.62797065     0.36710
N2107       N  0.56058934  0.26658044  0.66002475    -0.38110
N2108       N  0.54849248  0.40586910  0.61242540    -0.38110
N2109       N  0.58972716  0.32436731  0.77437472    -0.37550
N2110       N  0.98101453  0.33029277  0.56890901    -0.37560
C2111       C  0.57738658  0.36097818  0.32728693    -0.04220
C2112       C  0.57086429  0.36647923  0.37843344    -0.01340
C2113       C  0.55426286  0.34347780  0.41346230     0.03650
C2114       C  0.54524016  0.31475074  0.39915656    -0.04220
C2115       C  0.55413458  0.30939981  0.35020885    -0.01330
C2116       C  0.57061287  0.33253546  0.31466788     0.03640
C2117       C  0.58133169  0.39598864  0.39554399     0.38300
C2118       C  0.54417473  0.27976267  0.33491711     0.38290
C2119       C  0.58056854  0.32690253  0.26564860     0.36710
C2120       C  0.54619464  0.34984559  0.46383190     0.36710
N2121       N  0.58899492  0.32192990  0.22747886    -0.38110
N2122       N  0.54045132  0.35655172  0.50315311    -0.38110
N2123       N  0.53540701  0.25583860  0.32351312    -0.37550
N2124       N  0.58953972  0.41919607  0.41082086    -0.37560
O2125       O  0.00122339  0.78612217  0.44680353    -0.73310
O2126       O  0.95234675  0.72449774  0.54161409    -0.73340
O2127       O  0.99269292  0.78137601  0.55277374    -0.73400
O2128       O  0.96100897  0.72865416  0.43606072    -0.73450
O2129       O  0.49519542  0.71709419  0.44857401    -0.73380
O2130       O  0.52854619  0.77221370  0.56106450    -0.73360
O2131       O  0.48805336  0.71512188  0.55447239    -0.73330
O2132       O  0.53560699  0.77451362  0.45470054    -0.73400
Ni2133     Ni  0.97562636  0.75561640  0.49386549     1.25410
Ni2134     Ni  0.51310611  0.74435567  0.50498254     1.25360
C2135       C  0.52639217  0.79050462  0.43526150     0.88870
C2136       C  0.96225172  0.70973789  0.56366121     0.88800
C2137       C  0.51608272  0.78596611  0.57585251     0.88830
C2138       C  0.97229961  0.71327660  0.42475024     0.89000
O2139       O  0.73853331  0.77167118  0.94844768    -0.73310
O2140       O  0.71907824  0.70909044  0.04486366    -0.73340
O2141       O  0.73295971  0.76504390  0.05564324    -0.73400
O2142       O  0.72570864  0.71613813  0.93846783    -0.73450
O2143       O  0.77212071  0.72867904  0.94798288    -0.73380
O2144       O  0.77983415  0.77960307  0.06005712    -0.73360
O2145       O  0.76597944  0.72350408  0.05468475    -0.73330
O2146       O  0.78514696  0.78445368  0.95343143    -0.73400
Ni2147     Ni  0.72738337  0.73999606  0.99659451     1.25410
Ni2148     Ni  0.77742963  0.75458827  0.00439869     1.25360
C2149       C  0.76491922  0.78799721  0.93414139     0.88870
C2150       C  0.73920796  0.70603509  0.06567079     0.88800
C2151       C  0.75796736  0.78058163  0.07742479     0.88830
C2152       C  0.74767854  0.71425749  0.92427100     0.89000
O2153       O  0.00854040  0.72041331  0.04816463    -0.73310
O2154       O  0.96410943  0.73808070  0.95148119    -0.73340
O2155       O  0.00636425  0.72474133  0.94191905    -0.73400
O2156       O  0.96676940  0.73444648  0.05885925    -0.73450
O2157       O  0.49982107  0.78141172  0.06001400    -0.73380
O2158       O  0.54119224  0.77126560  0.94779155    -0.73360
O2159       O  0.49895295  0.78471522  0.95269023    -0.73330
O2160       O  0.54190251  0.76742121  0.05457541    -0.73400
Ni2161     Ni  0.98518311  0.72776210  0.00001565     1.25410
Ni2162     Ni  0.52161298  0.77789223  0.00399441     1.25360
C2163       C  0.53262541  0.74085309  0.06670424     0.88870
C2164       C  0.97451760  0.76417350  0.93516287     0.88800
C2165       C  0.53063309  0.74629106  0.92652797     0.88830
C2166       C  0.97674162  0.75973152  0.07882702     0.89000
C2167       C  0.88365612  0.58492738  0.21128748     0.04240
C2168       C  0.89824510  0.56957219  0.20850615    -0.11910
C2169       C  0.92296662  0.57789512  0.23913652     0.01740
C2170       C  0.93357720  0.60205490  0.27221097    -0.10430
C2171       C  0.91894791  0.61753399  0.27629522     0.04240
C2172       C  0.89380109  0.60883752  0.24541004    -0.09850
H2173       H  0.89010727  0.55083792  0.18283317     0.09830
H2174       H  0.95295150  0.60843304  0.29569180     0.07360
H2175       H  0.88206365  0.62028934  0.24827279     0.07210
C2176       C  0.58599514  0.88380158  0.28562312     0.04240
C2177       C  0.61237239  0.89581045  0.25774565    -0.11910
C2178       C  0.61999774  0.91874590  0.22143259     0.01740
C2179       C  0.60117318  0.92949257  0.21371936    -0.10430
C2180       C  0.57550393  0.91820479  0.24236927     0.04240
C2181       C  0.56763402  0.89499825  0.27689952    -0.09850
H2182       H  0.62710899  0.88793696  0.26513661     0.09830
H2183       H  0.60698620  0.94740551  0.18664581     0.07360
H2184       H  0.54761335  0.88644302  0.29900288     0.07210
C2185       C  0.97956274  0.50930306  0.24101711     0.03400
C2186       C  0.51066372  0.52420095  0.24029647     0.03400
C2187       C  0.52516755  0.50791641  0.24081852     0.03400
C2188       C  0.50860099  0.97677680  0.24199967     0.03400
C2189       C  0.97745680  0.96188087  0.24285858     0.03400
C2190       C  0.96294527  0.97818574  0.24251040     0.03400
C2191       C  0.79066150  0.90783801  0.28942033     0.04240
C2192       C  0.82073056  0.92590071  0.28358870    -0.11910
C2193       C  0.83608868  0.91803142  0.24982203     0.01740
C2194       C  0.82117567  0.89258838  0.22044295    -0.10430
C2195       C  0.79131223  0.87334355  0.22769837     0.04240
C2196       C  0.77600016  0.88114096  0.26260159    -0.09850
H2197       H  0.83223626  0.94590229  0.30588499     0.09830
H2198       H  0.83330279  0.88706929  0.19352838     0.07360
H2199       H  0.75302970  0.86667000  0.26911582     0.07210
C2200       C  0.58979700  0.69827767  0.20347826     0.04240
C2201       C  0.57300259  0.66785143  0.20333798    -0.11910
C2202       C  0.57976013  0.65133843  0.23702690     0.01740
C2203       C  0.60350307  0.66528001  0.27153498    -0.10430
C2204       C  0.62018267  0.69574047  0.27397269     0.04240
C2205       C  0.61330450  0.71217716  0.23927412    -0.09850
H2206       H  0.55435333  0.65691170  0.17714004     0.09830
H2207       H  0.60876731  0.65227009  0.29716207     0.07360
H2208       H  0.62587836  0.73560171  0.24057235     0.07210
C2209       C  0.69812839  0.57897462  0.28229993     0.04240
C2210       C  0.71300585  0.60268031  0.24747936    -0.11910
C2211       C  0.69759437  0.60889015  0.20939319     0.01740
C2212       C  0.66727621  0.59212244  0.20750818    -0.10430
C2213       C  0.65220850  0.56901511  0.24249889     0.04240
C2214       C  0.66761670  0.56216914  0.27906220    -0.09850
H2215       H  0.73633018  0.61652106  0.25030156     0.09830
H2216       H  0.65528680  0.59755935  0.17950822     0.07360
H2217       H  0.65571277  0.54388590  0.30554344     0.07210
C2218       C  0.91566595  0.79204602  0.22616508     0.04240
C2219       C  0.92470028  0.82146967  0.21865133    -0.11910
C2220       C  0.91337135  0.83491352  0.24931908     0.01740
C2221       C  0.89088061  0.81831510  0.28466299    -0.10430
C2222       C  0.88048703  0.78860156  0.29094735     0.04240
C2223       C  0.89334373  0.77557039  0.26269446    -0.09850
H2224       H  0.94185656  0.83446090  0.19076739     0.09830
H2225       H  0.88193983  0.82869149  0.30832188     0.07360
H2226       H  0.88630516  0.75300559  0.26978075     0.07210
C2227       C  0.87165852  0.57265193  0.75665777     0.04240
C2228       C  0.89018168  0.56130412  0.76098769    -0.11910
C2229       C  0.91498317  0.57218713  0.72957930     0.01740
C2230       C  0.92195188  0.59514038  0.69484438    -0.10430
C2231       C  0.90429944  0.60735364  0.69139947     0.04240
C2232       C  0.87869135  0.59556593  0.72101742    -0.09850
H2233       H  0.88548866  0.54416060  0.78926538     0.09830
H2234       H  0.94188219  0.60442246  0.67226640     0.07360
H2235       H  0.86498721  0.60494083  0.71779534     0.07210
C2236       C  0.57528128  0.88162719  0.72685816     0.04240
C2237       C  0.60315180  0.89178157  0.74939816    -0.11910
C2238       C  0.61497104  0.91532738  0.78472923     0.01740
C2239       C  0.60100655  0.93092604  0.79262705    -0.10430
C2240       C  0.57419248  0.92179124  0.76941681     0.04240
C2241       C  0.56043166  0.89609304  0.74054413    -0.09850
H2242       H  0.61569735  0.88184558  0.74001926     0.09830
H2243       H  0.61107832  0.95028471  0.81698581     0.07360
H2244       H  0.53851818  0.88837989  0.72648250     0.07210
C2245       C  0.99047297  0.52394108  0.75438521     0.03400
C2246       C  0.97494458  0.99306438  0.76111405     0.03400
C2247       C  0.99033491  0.97782052  0.76522758     0.03400
C2248       C  0.52139297  0.99346222  0.76263784     0.03400
C2249       C  0.53709814  0.52441270  0.75652913     0.03400
C2250       C  0.52159397  0.53974868  0.75303282     0.03400
C2251       C  0.70872550  0.59020179  0.70528403     0.04240
C2252       C  0.72470241  0.61560405  0.73533667    -0.11910
C2253       C  0.71018792  0.62559882  0.76718169     0.01740
C2254       C  0.67982307  0.61018191  0.76854767    -0.10430
C2255       C  0.66377772  0.58506038  0.73858473     0.04240
C2256       C  0.67823679  0.57507705  0.70689775    -0.09850
H2257       H  0.74819518  0.62721310  0.73458574     0.09830
H2258       H  0.66856632  0.61761208  0.79362026     0.07360
H2259       H  0.66582150  0.55532141  0.68425857     0.07210
C2260       C  0.58777693  0.71070083  0.77952702     0.04240
C2261       C  0.57543099  0.68055709  0.78191201    -0.11910
C2262       C  0.58555419  0.66667349  0.74927692     0.01740
C2263       C  0.60840818  0.68315198  0.71430138    -0.10430
C2264       C  0.62104507  0.71337439  0.71183091     0.04240
C2265       C  0.61074167  0.72718947  0.74459911    -0.09850
H2266       H  0.55739403  0.66779314  0.80832946     0.09830
H2267       H  0.61628838  0.67244686  0.68887162     0.07360
H2268       H  0.62038467  0.75049910  0.74271663     0.07210
C2269       C  0.80415446  0.91880450  0.72451482     0.04240
C2270       C  0.78904338  0.89188209  0.75132571    -0.11910
C2271       C  0.80363275  0.88412373  0.78877643     0.01740
C2272       C  0.83336481  0.90262686  0.79768356    -0.10430
C2273       C  0.84847131  0.92886458  0.77066441     0.04240
C2274       C  0.83371491  0.93745346  0.73630883    -0.09850
H2275       H  0.76642473  0.87680335  0.74250130     0.09830
H2276       H  0.84501681  0.89609593  0.82433542     0.07360
H2277       H  0.84593632  0.95806796  0.71599318     0.07210
C2278       C  0.91853242  0.80503431  0.79279065     0.04240
C2279       C  0.93237156  0.83487043  0.80188886    -0.11910
C2280       C  0.92246215  0.85148769  0.77718242     0.01740
C2281       C  0.89768116  0.83815256  0.74518570    -0.10430
C2282       C  0.88444354  0.80858131  0.73223700     0.04240
C2283       C  0.89508265  0.79193785  0.75669436    -0.09850
H2284       H  0.95147977  0.84535376  0.82713140     0.09830
H2285       H  0.88992994  0.85143833  0.72742882     0.07360
H2286       H  0.88576138  0.76925193  0.74718829     0.07210
O2287       O  0.77229200  0.53939880  0.54874204    -0.73310
O2288       O  0.77729886  0.49059111  0.44346954    -0.73340
O2289       O  0.76608534  0.53481792  0.44285290    -0.73400
O2290       O  0.78371285  0.49521201  0.54993682    -0.73450
O2291       O  0.73686172  0.96212976  0.55829581    -0.73380
O2292       O  0.71895978  0.00287512  0.45336534    -0.73360
O2293       O  0.73005105  0.95842939  0.45223643    -0.73330
O2294       O  0.72548287  0.00627271  0.55954973    -0.73400
Ni2295     Ni  0.77653835  0.51609909  0.49592460     1.25410
Ni2296     Ni  0.72615091  0.98131247  0.50618464     1.25360
C2297       C  0.74775064  0.53094192  0.57070012     0.88870
C2298       C  0.75466670  0.96638316  0.43117664     0.88800
C2299       C  0.73949403  0.52589528  0.43178449     0.88830
C2300       C  0.76347378  0.97167463  0.57057677     0.89000
O2301       O  0.76884106  0.53512899  0.93602783    -0.73310
O2302       O  0.71734647  0.49850537  0.05304653    -0.73340
O2303       O  0.77384898  0.54094605  0.04332558    -0.73400
O2304       O  0.71269963  0.49337677  0.94613432    -0.73450
O2305       O  0.72521691  0.95954059  0.95031183    -0.73380
O2306       O  0.78630709  0.00709037  0.04766019    -0.73360
O2307       O  0.73029531  0.96515084  0.05716972    -0.73330
O2308       O  0.78156161  0.00160017  0.94070343    -0.73400
Ni2309     Ni  0.74274396  0.51821601  0.99459140     1.25410
Ni2310     Ni  0.75634717  0.98220094  0.99906947     1.25360
C2311       C  0.78338142  0.52401132  0.91840925     0.88870
C2312       C  0.71518518  0.97567431  0.07434896     0.88800
C2313       C  0.78985768  0.53157676  0.06196197     0.88830
C2314       C  0.70910817  0.96886041  0.93191217     0.89000
O2315       O  0.77336773  0.74215359  0.56635190    -0.73310
O2316       O  0.71622394  0.71957599  0.45606392    -0.73340
O2317       O  0.77218572  0.73195743  0.46170535    -0.73400
O2318       O  0.71736416  0.72959722  0.56132427    -0.73450
O2319       O  0.73140492  0.77573678  0.54352529    -0.73380
O2320       O  0.78761425  0.77862983  0.44619327    -0.73360
O2321       O  0.73149236  0.76593754  0.43839100    -0.73330
O2322       O  0.78731202  0.78834456  0.55112799    -0.73400
Ni2323     Ni  0.74418655  0.72916086  0.51194439     1.25410
Ni2324     Ni  0.76001943  0.77882396  0.49416788     1.25360
C2325       C  0.79020110  0.76912841  0.57641542     0.88870
C2326       C  0.71412091  0.73892249  0.42951807     0.88800
C2327       C  0.78932247  0.75594184  0.43846242     0.88830
C2328       C  0.71515207  0.75202979  0.56842030     0.89000
C2329       C  0.86083951  0.79649567  0.69067561    -0.04220
C2330       C  0.86461254  0.81219352  0.64293727    -0.01340
C2331       C  0.84130592  0.80397348  0.60734409     0.03650
C2332       C  0.81422536  0.77846384  0.61629934    -0.04220
C2333       C  0.81106034  0.76141849  0.66177223    -0.01330
C2334       C  0.83398176  0.77057525  0.69907664     0.03640
C2335       C  0.89288982  0.83639840  0.62852531     0.38300
C2336       C  0.78402781  0.73454323  0.67107674     0.38290
C2337       C  0.82951408  0.75309113  0.74605849     0.36710
C2338       C  0.84604130  0.82137658  0.55992432     0.36710
N2339       N  0.82568925  0.73864174  0.78292975    -0.38110
N2340       N  0.84997860  0.83528582  0.52221173    -0.38110
N2341       N  0.76258937  0.71294456  0.67826251    -0.37550
N2342       N  0.91505063  0.85582235  0.61581222    -0.37560
C2343       C  0.79051655  0.92771126  0.68180804    -0.04220
C2344       C  0.76428110  0.92749713  0.69012826    -0.01340
C2345       C  0.75424436  0.93997256  0.65213251     0.03650
C2346       C  0.77150048  0.95495950  0.60763966    -0.04220
C2347       C  0.79662730  0.95340182  0.59761572    -0.01330
C2348       C  0.80529940  0.93887237  0.63319655     0.03640
C2349       C  0.74773680  0.91521695  0.73816959     0.38300
C2350       C  0.81311204  0.96559390  0.54924371     0.38290
C2351       C  0.82931609  0.93507076  0.61860161     0.36710
C2352       C  0.72606261  0.93710731  0.65916748     0.36710
N2353       N  0.84853188  0.93246893  0.60565708    -0.38110
N2354       N  0.70328498  0.93418453  0.66454267    -0.38110
N2355       N  0.82628696  0.47522240  0.51078304    -0.37550
N2356       N  0.73403517  0.90530968  0.77599141    -0.37560
C2357       C  0.64605961  0.73022177  0.67613560    -0.04220
C2358       C  0.67446409  0.74183837  0.69606821    -0.01340
C2359       C  0.69786567  0.75081533  0.66085012     0.03650
C2360       C  0.69294101  0.74982800  0.60570801    -0.04220
C2361       C  0.66539822  0.74314993  0.58654573    -0.01330
C2362       C  0.64166411  0.73219874  0.62151550     0.03640
C2363       C  0.67907361  0.74437929  0.75280978     0.38300
C2364       C  0.66163145  0.74801507  0.53128841     0.38290
C2365       C  0.61272373  0.72258939  0.60146127     0.36710
C2366       C  0.72693380  0.76120520  0.68099056     0.36710
N2367       N  0.58960253  0.71493674  0.58557514    -0.38110
N2368       N  0.75026091  0.76984693  0.69677558    -0.38110
N2369       N  0.65860837  0.75260602  0.48755829    -0.37550
N2370       N  0.68155019  0.74658670  0.79836672    -0.37560
C2371       C  0.72360590  0.57818775  0.67399483    -0.04220
C2372       C  0.72432937  0.55375680  0.69308691    -0.01340
C2373       C  0.73523184  0.54009908  0.66087997     0.03650
C2374       C  0.74422406  0.54992069  0.60874806    -0.04220
C2375       C  0.74597459  0.57586771  0.59137729    -0.01330
C2376       C  0.73561904  0.58997001  0.62398398     0.03640
C2377       C  0.71305098  0.54238202  0.74533075     0.38300
C2378       C  0.75754389  0.58753219  0.53941257     0.38290
C2379       C  0.73603051  0.61578777  0.60518438     0.36710
C2380       C  0.73845585  0.01665091  0.68145108     0.36710
N2381       N  0.73632689  0.63640715  0.59036306    -0.38110
N2382       N  0.74200008  0.99835228  0.69700658    -0.38110
N2383       N  0.76691894  0.59697191  0.49806407    -0.37550
N2384       N  0.70364038  0.53370776  0.78699326    -0.37560
C2385       C  0.57008096  0.54080380  0.75249300    -0.04220
C2386       C  0.58423508  0.55593123  0.70520099    -0.01340
C2387       C  0.61474237  0.57017687  0.70066837     0.03650
C2388       C  0.63163313  0.56895312  0.74229794    -0.04220
C2389       C  0.61807892  0.55390428  0.78904417    -0.01330
C2390       C  0.58772519  0.54050868  0.79476140     0.03640
C2391       C  0.56792936  0.55496821  0.65855154     0.38300
C2392       C  0.63562160  0.55218256  0.83156207     0.38290
C2393       C  0.57571256  0.52791155  0.84579792     0.36710
C2394       C  0.62894967  0.58622273  0.65282844     0.36710
N2395       N  0.56841686  0.01940550  0.88846101    -0.38110
N2396       N  0.64035617  0.59903659  0.61479420    -0.38110
N2397       N  0.64963547  0.55080717  0.86530095    -0.37550
N2398       N  0.55656252  0.55380977  0.61871923    -0.37560
C2399       C  0.53835785  0.57269069  0.75107273    -0.04220
C2400       C  0.55617637  0.58881440  0.79468944    -0.01340
C2401       C  0.57256801  0.61940007  0.79309592     0.03650
C2402       C  0.57050517  0.63452410  0.74916727    -0.04220
C2403       C  0.55246560  0.61901396  0.70630841    -0.01330
C2404       C  0.53683594  0.58842673  0.70665544     0.03640
C2405       C  0.55548176  0.57458563  0.84404837     0.38300
C2406       C  0.54951033  0.63476315  0.66189684     0.38290
C2407       C  0.02039603  0.57422756  0.65943569     0.36710
C2408       C  0.59141079  0.63547882  0.83718493     0.36710
N2409       N  0.00904321  0.56554349  0.61896490    -0.38110
N2410       N  0.60646912  0.64832349  0.87225908    -0.38110
N2411       N  0.54710841  0.64729827  0.62662515    -0.37550
N2412       N  0.55437641  0.56463812  0.88538946    -0.37560
C2413       C  0.97363901  0.94493416  0.77038112    -0.04220
C2414       C  0.95544213  0.93065764  0.81478365    -0.01340
C2415       C  0.93816559  0.90012462  0.81659151     0.03650
C2416       C  0.94083439  0.88341297  0.77707702    -0.04220
C2417       C  0.96078339  0.89706924  0.73585894    -0.01330
C2418       C  0.97553898  0.92738319  0.73041176     0.03640
C2419       C  0.95522522  0.94651206  0.86067042     0.38300
C2420       C  0.96621324  0.87976534  0.69878127     0.38290
C2421       C  0.98989292  0.93935202  0.68051575     0.36710
C2422       C  0.91789354  0.88572186  0.85963554     0.36710
N2423       N  0.49925318  0.94665492  0.63839001    -0.38110
N2424       N  0.90167929  0.87418193  0.89384284    -0.38110
N2425       N  0.97089325  0.86611064  0.66959744    -0.37550
N2426       N  0.95474902  0.95735755  0.89981455    -0.37560
C2427       C  0.94202682  0.97645700  0.76393418    -0.04220
C2428       C  0.92489992  0.95520403  0.72533934    -0.01340
C2429       C  0.89461795  0.93835861  0.73059910     0.03650
C2430       C  0.88048977  0.94475068  0.77017512    -0.04220
C2431       C  0.89678125  0.96626371  0.80771621    -0.01330
C2432       C  0.92739246  0.98116766  0.80614679     0.03640
C2433       C  0.93721744  0.95107731  0.67782101     0.38300
C2434       C  0.88190878  0.97251011  0.84870064     0.38290
C2435       C  0.94319393  0.49934576  0.85077788     0.36710
C2436       C  0.87787687  0.91397627  0.69531094     0.36710
N2437       N  0.95441068  0.51234582  0.88875186    -0.38110
N2438       N  0.86482757  0.89440863  0.66744125    -0.38110
N2439       N  0.86997985  0.97748333  0.88125127    -0.37550
N2440       N  0.94447602  0.94677105  0.63755723    -0.37560
C2441       C  0.56216835  0.94111786  0.76964645    -0.04220
C2442       C  0.54600009  0.94138995  0.81271273    -0.01340
C2443       C  0.53463046  0.95999513  0.81216761     0.03650
C2444       C  0.53734150  0.97687969  0.76635009    -0.04220
C2445       C  0.55413566  0.97642970  0.72331463    -0.01330
C2446       C  0.56754431  0.95973775  0.72636718     0.03640
C2447       C  0.54135067  0.92258211  0.85781844     0.38300
C2448       C  0.05572225  0.99025842  0.67308437     0.38290
C2449       C  0.58705631  0.96169283  0.68464580     0.36710
C2450       C  0.52169366  0.46245402  0.86028804     0.36710
N2451       N  0.60281559  0.96350862  0.65170003    -0.38830
N2452       N  0.51294758  0.46438163  0.90087961    -0.38110
N2453       N  0.05709897  0.99904110  0.63055771    -0.37550
N2454       N  0.53770865  0.90748726  0.89356508    -0.37560
C2455       C  0.64107614  0.92362769  0.81734480    -0.04220
C2456       C  0.63713512  0.91349546  0.87010441    -0.01340
C2457       C  0.65950354  0.92800782  0.90770769     0.03650
C2458       C  0.68647837  0.95167525  0.89204300    -0.04220
C2459       C  0.69095738  0.96071514  0.83854373    -0.01330
C2460       C  0.66812483  0.94702392  0.80140680     0.03640
C2461       C  0.60903691  0.88971684  0.88663281     0.38300
C2462       C  0.71843940  0.98548348  0.82291701     0.38290
C2463       C  0.67135724  0.95843206  0.74806213     0.36710
C2464       C  0.65334984  0.92066389  0.96321623     0.36710
N2465       N  0.67316902  0.96733220  0.70549736    -0.38110
N2466       N  0.64721753  0.91472147  0.00719981    -0.38110
N2467       N  0.74038911  0.50558594  0.81147670    -0.37550
N2468       N  0.58657600  0.87084677  0.89961707    -0.37560
C2469       C  0.97324973  0.53901946  0.74620570    -0.04220
C2470       C  0.97297033  0.55821417  0.78456376    -0.01340
C2471       C  0.95397300  0.56904218  0.77877120     0.03650
C2472       C  0.93487270  0.56077201  0.73528917    -0.04220
C2473       C  0.93541868  0.54249531  0.69634581    -0.01330
C2474       C  0.95488819  0.53224505  0.70099784     0.03640
C2475       C  0.99058455  0.56610203  0.83205493     0.38300
C2476       C  0.91556842  0.53396330  0.65155593     0.38290
C2477       C  0.95718648  0.51648682  0.65681574     0.36710
C2478       C  0.95377950  0.58861485  0.81810996     0.36710
N2479       N  0.95937504  0.50555765  0.61919120    -0.38110
N2480       N  0.95357707  0.60414232  0.84949527    -0.38110
N2481       N  0.89964500  0.52711289  0.61602954    -0.37550
N2482       N  0.00294706  0.57308555  0.87202173    -0.37560
C2483       C  0.84574975  0.56092562  0.79169990    -0.04220
C2484       C  0.84155882  0.57927436  0.82589627    -0.01340
C2485       C  0.81895829  0.56728527  0.86345462     0.03650
C2486       C  0.80269050  0.53689078  0.87147988    -0.04220
C2487       C  0.80573858  0.51865299  0.83494862    -0.01330
C2488       C  0.82623018  0.53072443  0.79392655     0.03640
C2489       C  0.86139447  0.61039253  0.82484787     0.38300
C2490       C  0.78734025  0.48736506  0.83841234     0.38290
C2491       C  0.82702054  0.51207790  0.75336735     0.36710
C2492       C  0.81291802  0.58646034  0.89384776     0.36710
N2493       N  0.82762332  0.49745150  0.72053876    -0.38110
N2494       N  0.80796193  0.60187463  0.91740737    -0.38110
N2495       N  0.77269872  0.96242743  0.84132315    -0.37550
N2496       N  0.87724361  0.63520333  0.82418647    -0.37560
C2497       C  0.81160661  0.75776449  0.40182223    -0.04220
C2498       C  0.83989156  0.76689203  0.42034668    -0.01340
C2499       C  0.86255189  0.77476807  0.38387980     0.03650
C2500       C  0.85660608  0.77214158  0.32905175    -0.04220
C2501       C  0.82757819  0.75824799  0.31134538    -0.01330
C2502       C  0.80518135  0.75192304  0.34753028     0.03640
C2503       C  0.84560399  0.76762958  0.47663820     0.38300
C2504       C  0.82081054  0.74989833  0.25635304     0.38290
C2505       C  0.77563011  0.73989085  0.32907558     0.36710
C2506       C  0.89196571  0.78556725  0.40253823     0.36710
N2507       N  0.75190755  0.73022137  0.31490206    -0.38110
N2508       N  0.91536231  0.79385016  0.41756339    -0.38110
N2509       N  0.81520686  0.74216473  0.21292919    -0.37550
N2510       N  0.85046236  0.76752629  0.52134383    -0.37560
C2511       C  0.71356491  0.57116822  0.32297532    -0.04220
C2512       C  0.73639482  0.56638942  0.30922331    -0.01340
C2513       C  0.74635239  0.55340894  0.34616080     0.03650
C2514       C  0.73210645  0.54306749  0.39524373    -0.04220
C2515       C  0.71131361  0.55030717  0.41064128    -0.01330
C2516       C  0.70347295  0.56578027  0.37578075     0.03640
C2517       C  0.74998577  0.57487185  0.25764941     0.38300
C2518       C  0.69862737  0.54282973  0.46318124     0.38290
C2519       C  0.68674318  0.57801348  0.39575264     0.36710
C2520       C  0.77126140  0.55081925  0.33352668     0.36710
N2521       N  0.67424347  0.58828126  0.41353293    -0.38110
N2522       N  0.79150621  0.54929230  0.32385835    -0.38110
N2523       N  0.68839985  0.53690668  0.50495135    -0.37550
N2524       N  0.76154042  0.58211970  0.21712707    -0.37560
C2525       C  0.64415409  0.70967635  0.31435235    -0.04220
C2526       C  0.67281732  0.73102407  0.30005219    -0.01340
C2527       C  0.69531742  0.74226394  0.33855410     0.03650
C2528       C  0.69024702  0.72961412  0.38973509    -0.04220
C2529       C  0.66168104  0.70814335  0.40368625    -0.01330
C2530       C  0.63863357  0.70009333  0.36766513     0.03640
C2531       C  0.67963236  0.74068627  0.24548286     0.38300
C2532       C  0.65554398  0.69467416  0.45581233     0.38290
C2533       C  0.60911431  0.68323186  0.38688268     0.36710
C2534       C  0.72371279  0.76640611  0.32480937     0.36710
N2535       N  0.58588642  0.67038134  0.40386297    -0.38110
N2536       N  0.74624294  0.78582012  0.31365606    -0.38110
N2537       N  0.65051435  0.68375405  0.49716170    -0.37550
N2538       N  0.68522486  0.74836746  0.20195204    -0.37560
C2539       C  0.77514501  0.91782362  0.32378537    -0.04220
C2540       C  0.77101386  0.91029984  0.37792867    -0.01340
C2541       C  0.76183969  0.92457819  0.41259429     0.03650
C2542       C  0.75760613  0.94697466  0.39340454    -0.04220
C2543       C  0.75867694  0.95218443  0.33840177    -0.01330
C2544       C  0.76767436  0.93778534  0.30366195     0.03640
C2545       C  0.77723427  0.88864239  0.39813326     0.38300
C2546       C  0.74946310  0.97145950  0.31761480     0.38290
C2547       C  0.77000996  0.94379648  0.24726284     0.36710
C2548       C  0.75649650  0.91598592  0.46779779     0.36710
N2549       N  0.77207315  0.94799858  0.20204544    -0.38110
N2550       N  0.75167274  0.90839071  0.51146430    -0.38110
N2551       N  0.74124042  0.48614328  0.30093541    -0.37550
N2552       N  0.78220019  0.87133609  0.41410454    -0.37560
C2553       C  0.55817360  0.52372416  0.24098527    -0.04220
C2554       C  0.57374976  0.52057240  0.19859533    -0.01340
C2555       C  0.60430906  0.53427463  0.20041845     0.03650
C2556       C  0.62000407  0.55296100  0.24238682    -0.04220
C2557       C  0.60503319  0.55752178  0.28306670    -0.01330
C2558       C  0.57447370  0.54204650  0.28386443     0.03640
C2559       C  0.55921548  0.50501525  0.15086453     0.38300
C2560       C  0.62105692  0.57927127  0.32321756     0.38290
C2561       C  0.56064452  0.04380012  0.33150596     0.36710
C2562       C  0.61976607  0.52942160  0.15851843     0.36710
N2563       N  0.55167536  0.04528289  0.37216363    -0.38110
N2564       N  0.63199453  0.52543043  0.12513482    -0.38110
N2565       N  0.63325908  0.59700115  0.35485909    -0.37550
N2566       N  0.54940597  0.49414833  0.11055320    -0.37560
C2567       C  0.52825213  0.55726108  0.23896918    -0.04220
C2568       C  0.54654779  0.57248632  0.19533343    -0.01340
C2569       C  0.56377209  0.60304896  0.19542270     0.03650
C2570       C  0.56155960  0.61916551  0.23686165    -0.04220
C2571       C  0.54206209  0.60457864  0.27836224    -0.01330
C2572       C  0.52674474  0.57402538  0.28102018     0.03640
C2573       C  0.04674372  0.55760432  0.14797126     0.38300
C2574       C  0.53680787  0.62101430  0.31761982     0.38290
C2575       C  0.51161408  0.56082707  0.32972565     0.36710
C2576       C  0.58381451  0.61800669  0.15235698     0.36710
N2577       N  0.50156888  0.55248956  0.37111760    -0.38110
N2578       N  0.59981500  0.62963482  0.11792863    -0.38110
N2579       N  0.53168847  0.63362258  0.34847626    -0.37550
N2580       N  0.04718514  0.54768261  0.10768762    -0.37560
C2581       C  0.95988346  0.92890822  0.24503664    -0.04220
C2582       C  0.96156254  0.91358787  0.28987348    -0.01340
C2583       C  0.94587570  0.88302841  0.29134983     0.03650
C2584       C  0.92779653  0.86704157  0.24880681    -0.04220
C2585       C  0.92538515  0.88171708  0.20456541    -0.01330
C2586       C  0.94137178  0.91234642  0.20233058     0.03640
C2587       C  0.97794978  0.92846298  0.33672044     0.38300
C2588       C  0.90664298  0.86507433  0.16074492     0.38290
C2589       C  0.94005284  0.92592734  0.15358329     0.36710
C2590       C  0.94887774  0.86788420  0.33668481     0.36710
N2591       N  0.43876529  0.93475363  0.11234030    -0.38110
N2592       N  0.95143124  0.85601691  0.37290746    -0.38110
N2593       N  0.89174773  0.85177745  0.12582419    -0.37550
N2594       N  0.98909467  0.93812711  0.37693733    -0.37560
C2595       C  0.92997408  0.96259430  0.24425206    -0.04220
C2596       C  0.91364496  0.96416409  0.20086107    -0.01340
C2597       C  0.88310626  0.95040987  0.20340702     0.03650
C2598       C  0.86827539  0.93466723  0.24875519    -0.04220
C2599       C  0.88397524  0.93271445  0.29183760    -0.01330
C2600       C  0.91449798  0.94657949  0.28990139     0.03640
C2601       C  0.92735182  0.97821690  0.15162534     0.38300
C2602       C  0.86848738  0.91602181  0.33840745     0.38290
C2603       C  0.92927612  0.94566302  0.33737492     0.36710
C2604       C  0.86670007  0.95221260  0.15894556     0.36710
N2605       N  0.93895724  0.94491443  0.37807452    -0.38110
N2606       N  0.85357327  0.95356420  0.12353928    -0.38110
N2607       N  0.85611151  0.90277595  0.37546200    -0.37550
N2608       N  0.93630903  0.98782318  0.11018748    -0.37560
C2609       C  0.55837460  0.93283350  0.24130082    -0.04220
C2610       C  0.56232697  0.95237231  0.28171528    -0.01340
C2611       C  0.54401077  0.96393434  0.28495634     0.03650
C2612       C  0.52438212  0.95988180  0.24304019    -0.04220
C2613       C  0.52192855  0.94138243  0.20047162    -0.01330
C2614       C  0.53791623  0.92701658  0.20107574     0.03640
C2615       C  0.58641641  0.96195298  0.31862964     0.38300
C2616       C  0.50556590  0.93885709  0.15300925     0.38290
C2617       C  0.53424735  0.90703009  0.15906781     0.36710
C2618       C  0.54488091  0.97844537  0.33357816     0.36710
N2619       N  0.53141931  0.89110920  0.12564837    -0.38110
N2620       N  0.54605259  0.98832563  0.37477776    -0.38110
N2621       N  0.49447057  0.93674884  0.11244185    -0.37550
N2622       N  0.60604294  0.97055954  0.34726821    -0.37560
C2623       C  0.69430641  0.96087613  0.11865643    -0.04220
C2624       C  0.67849067  0.93021040  0.12265000    -0.01340
C2625       C  0.65414115  0.91625583  0.15616575     0.03650
C2626       C  0.64785012  0.93258384  0.19153867    -0.04220
C2627       C  0.66661092  0.96300033  0.19354469    -0.01330
C2628       C  0.68867183  0.97716294  0.15554128     0.03640
C2629       C  0.68597838  0.91264456  0.09045398     0.38300
C2630       C  0.66290714  0.97990486  0.23413363     0.38290
C2631       C  0.70524139  0.00857528  0.15425907     0.36710
C2632       C  0.63404763  0.88548984  0.14965341     0.36710
N2633       N  0.71815373  0.53363622  0.15240099    -0.38110
N2634       N  0.61809453  0.86109825  0.14231228    -0.38110
N2635       N  0.66020367  0.99352765  0.26648332    -0.37550
N2636       N  0.69183809  0.89849514  0.06498510    -0.37560
C2637       C  0.93683526  0.56012282  0.23869437    -0.04220
C2638       C  0.93156843  0.54057061  0.28023083    -0.01340
C2639       C  0.94653965  0.52535701  0.28269582     0.03650
C2640       C  0.96424609  0.52657324  0.23982354    -0.04220
C2641       C  0.96716796  0.54453840  0.19565306    -0.01330
C2642       C  0.95455548  0.56207753  0.19632797     0.03640
C2643       C  0.90967783  0.53511660  0.31954688     0.38300
C2644       C  0.98119587  0.54396256  0.14737560     0.38290
C2645       C  0.95920902  0.58176201  0.15268404     0.36710
C2646       C  0.94513240  0.51093027  0.33208698     0.36710
N2647       N  0.96285318  0.59745140  0.11796040    -0.38110
N2648       N  0.94381618  0.50158311  0.37409689    -0.38110
N2649       N  0.99068695  0.54367106  0.10652928    -0.37550
N2650       N  0.89170600  0.52992520  0.35020620    -0.37560
C2651       C  0.85773041  0.57517519  0.17727625    -0.04220
C2652       C  0.83135006  0.55017805  0.19139116    -0.01340
C2653       C  0.80823822  0.53761661  0.15474899     0.03650
C2654       C  0.81216587  0.54848371  0.10253166    -0.04220
C2655       C  0.83837417  0.57375415  0.08870083    -0.01330
C2656       C  0.86085781  0.58750151  0.12647486     0.03640
C2657       C  0.82883396  0.53608798  0.24198765     0.38300
C2658       C  0.84333710  0.58439774  0.03473759     0.38290
C2659       C  0.88810464  0.61307210  0.11186587     0.36710
C2660       C  0.78041832  0.51329847  0.17044970     0.36710
N2661       N  0.90985861  0.63341606  0.10023614    -0.38110
N2662       N  0.75797191  0.99414826  0.18277714    -0.38110
N2663       N  0.84834312  0.59325914  0.99187398    -0.37550
N2664       N  0.82712061  0.52457242  0.28189806    -0.37560
C2665       C  0.93106045  0.77974687  0.19664328    -0.04220
C2666       C  0.96174514  0.79504085  0.19612054    -0.01340
C2667       C  0.97670650  0.78860933  0.15803883     0.03650
C2668       C  0.96132325  0.76455740  0.12352590    -0.04220
C2669       C  0.93090826  0.74629138  0.13070616    -0.01330
C2670       C  0.91574249  0.75467545  0.16502322     0.03640
C2671       C  0.97810895  0.81773668  0.23476325     0.38300
C2672       C  0.91470336  0.71914148  0.10224549     0.38290
C2673       C  0.88426676  0.73819409  0.16534478     0.36710
C2674       C  0.50800439  0.80747678  0.15458485     0.36710
N2675       N  0.85916275  0.72488618  0.16527814    -0.38110
N2676       N  0.53286136  0.82294734  0.15185570    -0.38110
N2677       N  0.90162919  0.69725024  0.08029489    -0.37550
N2678       N  0.99116152  0.83579563  0.26549316    -0.37560
C2679       C  0.55044710  0.73319910  0.10089459    -0.04220
C2680       C  0.55599423  0.74186511  0.15446488    -0.01340
C2681       C  0.57163228  0.73298271  0.18722963     0.03650
C2682       C  0.58106491  0.71465916  0.16696703    -0.04220
C2683       C  0.57753354  0.70808141  0.11231491    -0.01330
C2684       C  0.56145306  0.71639189  0.07991138     0.03640
C2685       C  0.54297672  0.75722700  0.17727362     0.38300
C2686       C  0.59100218  0.69320079  0.08902623     0.38290
C2687       C  0.55515145  0.70638386  0.02549641     0.36710
C2688       C  0.57760626  0.74224659  0.24196654     0.36710
N2689       N  0.04981941  0.69775367  0.98253873    -0.38110
N2690       N  0.58330059  0.74987774  0.28545111    -0.38110
N2691       N  0.60206246  0.68182753  0.06969130    -0.37550
N2692       N  0.53195873  0.76879137  0.19596031    -0.37560
C2693       C  0.54711940  0.74177882  0.88462962    -0.04220
C2694       C  0.57620477  0.74925226  0.89388024    -0.01340
C2695       C  0.59010796  0.74015359  0.85827044     0.03650
C2696       C  0.57529646  0.72433765  0.81262797    -0.04220
C2697       C  0.54716407  0.71904233  0.80116820    -0.01330
C2698       C  0.53311516  0.72779250  0.83707080     0.03640
C2699       C  0.59127625  0.76467518  0.94166531     0.38300
C2700       C  0.53256982  0.70383993  0.75296965     0.38290
C2701       C  0.50442943  0.72287516  0.82506441     0.36710
C2702       C  0.61888703  0.74538827  0.87052537     0.36710
N2703       N  0.98168457  0.71953124  0.81616540    -0.38110
N2704       N  0.64176333  0.74953016  0.88097954    -0.38110
N2705       N  0.52146517  0.69153504  0.71434636    -0.37550
N2706       N  0.60329708  0.77691239  0.97980057    -0.37560
C2707       C  0.92965243  0.78850898  0.82212484    -0.04220
C2708       C  0.91531975  0.77303060  0.86833537    -0.01340
C2709       C  0.92952322  0.76406658  0.90445011     0.03650
C2710       C  0.95828579  0.77079561  0.89482290    -0.04220
C2711       C  0.97186560  0.78465958  0.84685807    -0.01330
C2712       C  0.95751436  0.79328759  0.81053503     0.03640
C2713       C  0.88668851  0.76806439  0.88050291     0.38300
C2714       C  0.00076007  0.79030955  0.83498872     0.38290
C2715       C  0.97177674  0.80794083  0.76182228     0.36710
C2716       C  0.91514423  0.74976157  0.95322365     0.36710
N2717       N  0.98317611  0.81956972  0.72293973    -0.38110
N2718       N  0.90328205  0.73847417  0.99198464    -0.38110
N2719       N  0.52367338  0.79460988  0.82531331    -0.37550
N2720       N  0.86390898  0.76418790  0.89036710    -0.37560
C2721       C  0.71240346  0.63412675  0.17294559    -0.04220
C2722       C  0.71015830  0.62960194  0.11766519    -0.01340
C2723       C  0.71851702  0.65309621  0.08268609     0.03650
C2724       C  0.73109015  0.68155336  0.10257901    -0.04220
C2725       C  0.73414387  0.68623738  0.15782831    -0.01330
C2726       C  0.72467594  0.66252623  0.19294552     0.03640
C2727       C  0.69889689  0.60062877  0.09679233     0.38300
C2728       C  0.74450858  0.71504961  0.17845896     0.38290
C2729       C  0.72574437  0.66681781  0.24974320     0.36710
C2730       C  0.71219334  0.64760392  0.02659024     0.36710
N2731       N  0.72602145  0.66907156  0.29532852    -0.38110
N2732       N  0.70620010  0.64269316  0.98222211    -0.38110
N2733       N  0.75229006  0.73798818  0.19476014    -0.37550
N2734       N  0.69015549  0.57759139  0.08002285    -0.37560
C2735       C  0.72601454  0.65160404  0.80138343    -0.04220
C2736       C  0.72212070  0.67551522  0.79329037    -0.01340
C2737       C  0.73218051  0.69758862  0.83146372     0.03650
C2738       C  0.74442684  0.69511709  0.87929254    -0.04220
C2739       C  0.75139191  0.67311796  0.88476562    -0.01330
C2740       C  0.74195358  0.65118908  0.84600076     0.03640
C2741       C  0.70678098  0.67689684  0.74673009     0.38300
C2742       C  0.76722239  0.67236119  0.93103741     0.38290
C2743       C  0.74678723  0.62715559  0.85400394     0.36710
C2744       C  0.73174338  0.72387767  0.82066349     0.36710
N2745       N  0.75059029  0.60794354  0.86032736    -0.38110
N2746       N  0.73280127  0.74563026  0.81264891    -0.38110
N2747       N  0.77989626  0.67177027  0.96791452    -0.37550
N2748       N  0.69438692  0.67794628  0.70980785    -0.37560
C2749       C  0.77747244  0.84501083  0.19893942    -0.04220
C2750       C  0.79160419  0.82883228  0.19925021    -0.01340
C2751       C  0.78581073  0.80848024  0.15915409     0.03650
C2752       C  0.76240479  0.80039643  0.12303986    -0.04220
C2753       C  0.74461439  0.81273280  0.12981871    -0.01330
C2754       C  0.75312115  0.83608882  0.16537778     0.03640
C2755       C  0.81293437  0.83377637  0.24015108     0.38300
C2756       C  0.71807653  0.80237463  0.09941520     0.38290
C2757       C  0.73774031  0.85186212  0.16493191     0.36710
C2758       C  0.80539835  0.79743119  0.15406300     0.36710
N2759       N  0.72546270  0.86444351  0.16440570    -0.38110
N2760       N  0.82170470  0.78953595  0.14898951    -0.38110
N2761       N  0.69655429  0.79392293  0.07613634    -0.37550
N2762       N  0.82988928  0.83762380  0.27265571    -0.37560
C2763       C  0.78878013  0.85657864  0.81937425    -0.04220
C2764       C  0.79676938  0.83549979  0.81170341    -0.01340
C2765       C  0.78905028  0.81322847  0.84931009     0.03650
C2766       C  0.77210932  0.81098230  0.89371297    -0.04220
C2767       C  0.76225927  0.83080389  0.89914565    -0.01330
C2768       C  0.77099301  0.85381264  0.86261015     0.03640
C2769       C  0.81339132  0.83697776  0.76543893     0.38300
C2770       C  0.74469968  0.82883214  0.94412580     0.38290
C2771       C  0.76331571  0.87576478  0.87165122     0.36710
C2772       C  0.79874960  0.79268654  0.84242486     0.36710
N2773       N  0.75731579  0.89331173  0.87942650    -0.38110
N2774       N  0.80647292  0.77625042  0.83759707    -0.38110
N2775       N  0.73067327  0.82763915  0.97973376    -0.37550
N2776       N  0.82645473  0.83774631  0.72854726    -0.37560
C2777       C  0.95758593  0.68912517  0.38643740    -0.04220
C2778       C  0.95142912  0.69385028  0.33404038    -0.01340
C2779       C  0.93826188  0.67048060  0.29788933     0.03650
C2780       C  0.92991194  0.64202579  0.31476234    -0.04220
C2781       C  0.93424638  0.63725302  0.36837852    -0.01330
C2782       C  0.94906748  0.66072986  0.40327559     0.03640
C2783       C  0.95982815  0.72292938  0.31663783     0.38300
C2784       C  0.92278739  0.60804703  0.38859886     0.38290
C2785       C  0.95542109  0.65540347  0.45685074     0.36710
C2786       C  0.93435210  0.67602403  0.24302815     0.36710
N2787       N  0.46061315  0.65089729  0.49923567    -0.38110
N2788       N  0.93127980  0.68059909  0.19931035    -0.38110
N2789       N  0.91368869  0.58503831  0.40606399    -0.37550
N2790       N  0.96649032  0.74610701  0.30269716    -0.37560
C2791       C  0.94368972  0.68562153  0.59990488    -0.04220
C2792       C  0.95334135  0.68563906  0.65199481    -0.01340
C2793       C  0.93940662  0.66027277  0.68289395     0.03650
C2794       C  0.91531133  0.63499920  0.66222358    -0.04220
C2795       C  0.90364219  0.63589610  0.61249203    -0.01330
C2796       C  0.91777198  0.66131539  0.58132416     0.03640
C2797       C  0.47700900  0.71203576  0.67421712     0.38300
C2798       C  0.87798938  0.61028951  0.59253741     0.38290
C2799       C  0.90633278  0.66199812  0.52941557     0.36710
C2800       C  0.95018763  0.65966940  0.73553529     0.36710
N2801       N  0.89713596  0.66253893  0.48805019    -0.38110
N2802       N  0.95840302  0.65838193  0.77742166    -0.38110
N2803       N  0.85747433  0.58982089  0.57681061    -0.37550
N2804       N  0.49548164  0.73329855  0.69228620    -0.37560
C2805       C  0.52976636  0.80870055  0.61811047    -0.04220
C2806       C  0.52503102  0.83233559  0.61804293    -0.01340
C2807       C  0.54392333  0.85760385  0.64608177     0.03650
C2808       C  0.56130490  0.85679395  0.68804710    -0.04220
C2809       C  0.56305213  0.83133704  0.69379248    -0.01330
C2810       C  0.54950030  0.80867592  0.65612433     0.03640
C2811       C  0.50057432  0.83114850  0.59030199     0.38300
C2812       C  0.57791459  0.82762072  0.73872956     0.38290
C2813       C  0.55541614  0.78510755  0.65824461     0.36710
C2814       C  0.54650444  0.88463268  0.62826421     0.36710
N2815       N  0.56054291  0.76659169  0.66004644    -0.38110
N2816       N  0.54826319  0.90583642  0.61283465    -0.38110
N2817       N  0.58965249  0.82434036  0.77444291    -0.37550
N2818       N  0.98100474  0.83032641  0.56877891    -0.37560
C2819       C  0.57737246  0.86098730  0.32731801    -0.04220
C2820       C  0.57085082  0.86649162  0.37846460    -0.01340
C2821       C  0.55426297  0.84349299  0.41350981     0.03650
C2822       C  0.54523166  0.81476466  0.39919953    -0.04220
C2823       C  0.55412297  0.80941085  0.35025136    -0.01330
C2824       C  0.57060185  0.83254453  0.31470834     0.03640
C2825       C  0.58130690  0.89600090  0.39556067     0.38300
C2826       C  0.54416950  0.77977365  0.33496872     0.38290
C2827       C  0.58056216  0.82690910  0.26569703     0.36710
C2828       C  0.54623420  0.84986400  0.46391889     0.36710
N2829       N  0.58899276  0.82193399  0.22753559    -0.38110
N2830       N  0.54052826  0.85656642  0.50328468    -0.38110
N2831       N  0.53541046  0.75585044  0.32356987    -0.37550
N2832       N  0.58950425  0.91920851  0.41082512    -0.37560
loop_ 
_geom_bond_atom_site_label_1 
_geom_bond_atom_site_label_2 
_geom_bond_distance 
_geom_bond_site_symmetry_2 
_ccdc_geom_bond_type 
O1           Ni9   1.918       .  S
O1         C1427   1.281       .  A
O2           Ni9   1.915       .  S
O2           C12   1.279       .  A
O3           Ni9   1.917       .  S
O3         C1429   1.283       .  A
O4           Ni9   1.921       .  S
O4           C14   1.281       .  A
O5          Ni10   1.913   1_655  S
O5         C1430   1.281       .  A
O6          Ni10   1.916       .  S
O6           C13   1.280       .  A
O7          Ni10   1.917   1_655  S
O7         C1428   1.282       .  A
O8          Ni10   1.920       .  S
O8           C11   1.281       .  A
Ni9       Ni1426   2.387       .  S
Ni10      Ni1425   2.387   1_455  S
C11        O1417   1.281       .  A
C11         C698   1.483       .  S
C12        O1423   1.282       .  A
C12         C667   1.478       .  S
C13        O1419   1.283   1_455  A
C13         C681   1.502       .  S
C14        O1421   1.281       .  A
C14         C653   1.483       .  S
O15         Ni23   1.915       .  S
O15          C25   1.279       .  A
O16         Ni23   1.913   1_554  S
O16          C26   1.279       .  A
O17         Ni23   1.930   1_554  S
O17          C27   1.284       .  A
O18         Ni23   1.924       .  S
O18          C28   1.285       .  A
O19         Ni24   1.912   1_556  S
O19          C28   1.278       .  A
O20         Ni24   1.907       .  S
O20          C27   1.280       .  A
O21         Ni24   1.925       .  S
O21          C26   1.282       .  A
O22         Ni24   1.923   1_556  S
O22          C25   1.283       .  A
Ni23        Ni24   2.386   1_556  S
C25         C642   1.488       .  S
C26         C600   1.479       .  S
C27         C628   1.505       .  S
C28         C614   1.484       .  S
O29         Ni37   1.916   1_554  S
O29        C1455   1.280       .  A
O30         Ni37   1.920       .  S
O30          C40   1.280       .  A
O31         Ni37   1.918       .  S
O31        C1457   1.283       .  A
O32         Ni37   1.923   1_554  S
O32          C42   1.282       .  A
O33         Ni38   1.911   1_655  S
O33        C1458   1.281       .  A
O34         Ni38   1.910   1_556  S
O34          C41   1.278       .  A
O35         Ni38   1.925   1_656  S
O35        C1456   1.283       .  A
O36         Ni38   1.928       .  S
O36          C39   1.283       .  A
Ni37      Ni1454   2.386   1_556  S
Ni38      Ni1453   2.386   1_454  S
C39        O1445   1.280       .  A
C39         C555   1.485       .  S
C40        O1451   1.283       .  A
C40         C586   1.488       .  S
C41        O1447   1.283       .  A
C41         C569   1.481       .  S
C42        O1449   1.281       .  A
C42         C544   1.503       .  S
C43         C527   1.478       .  S
C43          C44   1.397       .  A
C43          C48   1.407       .  A
C44          C45   1.392       .  A
C44          H49   1.085       .  S
C45         C513   1.477       .  S
C45          C46   1.398       .  A
C46          C47   1.407       .  A
C46          H50   1.085       .  S
C47         C656   1.495       .  S
C47          C48   1.410       .  A
C48          H51   1.083       .  S
C52         C695   1.494       .  S
C52          C53   1.410       .  A
C52          C57   1.405       .  A
C53          C54   1.414       .  A
C53          H58   1.083       .  S
C54         C502   1.492       .  S
C54          C55   1.405       .  A
C55          C56   1.393       .  A
C55          H59   1.085       .  S
C56         C485   1.480       .  S
C56          C57   1.394       .  A
C57          H60   1.085       .  S
C61         C516   1.518       .  S
C61        C1478   1.434       .  A
C61         C774   1.436   1_545  A
C62         C443   1.526       .  S
C62          C63   1.434       .  A
C62        C1477   1.434   1_455  A
C63         C429   1.522       .  S
C63         C772   1.438   1_545  A
C64         C488   1.522       .  S
C64         C771   1.438       .  A
C64        C1481   1.436   1_455  A
C65         C457   1.523       .  S
C65          C66   1.436       .  A
C65        C1480   1.436       .  A
C66         C471   1.522       .  S
C66         C769   1.436       .  A
C67         C415   1.484       .  S
C67          C68   1.402       .  A
C67          C72   1.408       .  A
C68          C69   1.397       .  A
C68          H73   1.084       .  S
C69         C474   1.484       .  S
C69          C70   1.394       .  A
C70          C71   1.406       .  A
C70          H74   1.085       .  S
C71         C625   1.498       .  S
C71          C72   1.411       .  A
C72          H75   1.082       .  S
C76         C558   1.497       .  S
C76          C77   1.406       .  A
C76          C81   1.411       .  A
C77          C78   1.396       .  A
C77          H82   1.085       .  S
C78         C446   1.488       .  S
C78          C79   1.399       .  A
C79          C80   1.408       .  A
C79          H83   1.084       .  S
C80         C401   1.502       .  S
C80          C81   1.412       .  A
C81          H84   1.082       .  S
C85         C387   1.499       .  S
C85          C86   1.409       .  A
C85          C90   1.410       .  A
C86          C87   1.407       .  A
C86          H91   1.082       .  S
C87         C597   1.486       .  S
C87          C88   1.400       .  A
C88          C89   1.394       .  A
C88          H92   1.085       .  S
C89         C432   1.484       .  S
C89          C90   1.400       .  A
C90          H93   1.084       .  S
C94         C541   1.497       .  S
C94          C95   1.407       .  A
C94          C99   1.411       .  A
C95          C96   1.396       .  A
C95         H100   1.084       .  S
C96         C460   1.486       .  S
C96          C97   1.397       .  A
C97          C98   1.403       .  A
C97         H101   1.085       .  S
C98         C376   1.482       .  S
C98          C99   1.406       .  A
C99         H102   1.082       .  S
C103        C359   1.492       .  S
C103        C104   1.407       .  A
C103        C108   1.407       .  A
C104        C105   1.398       .  A
C104        H109   1.084       .  S
C105        C348   1.480       .  S
C105        C106   1.395       .  A
C106        C107   1.400       .  A
C106        H110   1.085       .  S
C107        C670   1.479       .  S
C107        C108   1.402       .  A
C108        H111   1.083       .  S
C112        C684   1.511       .  S
C112        C113   1.418       .  A
C112        C117   1.411       .  A
C113        C114   1.408       .  A
C113        H118   1.076       .  S
C114        C331   1.478       .  S
C114        C115   1.393       .  A
C115        C116   1.385       .  A
C115        H119   1.086       .  S
C116        C317   1.473       .  S
C116        C117   1.394       .  A
C117        H120   1.085       .  S
C121        C345   1.517       .  S
C121        C830   1.434   1_545  A
C121       C1542   1.435       .  A
C122        C303   1.519       .  S
C122        C123   1.429       .  A
C122        C829   1.434       .  A
C123        C289   1.522       .  S
C123       C1540   1.433       .  A
C124        C320   1.517       .  S
C124       C1539   1.433   1_455  A
C124        C833   1.436       .  A
C125        C261   1.524       .  S
C125        C126   1.438       .  A
C125        C832   1.436   1_545  A
C126        C275   1.521       .  S
C126       C1537   1.435   1_455  A
C127        C247   1.488       .  S
C127        C128   1.407       .  A
C127        C132   1.406       .  A
C128        C129   1.406       .  A
C128        H133   1.083       .  S
C129        C611   1.486       .  S
C129        C130   1.400       .  A
C130        C131   1.396       .  A
C130        H134   1.085       .  S
C131        C264   1.485       .  S
C131        C132   1.402       .  A
C132        H135   1.084       .  S
C136        C572   1.482       .  S
C136        C137   1.401       .  A
C136        C141   1.404       .  A
C137        C138   1.398       .  A
C137        H142   1.085       .  S
C138        C278   1.485       .  S
C138        C139   1.401       .  A
C139        C140   1.404       .  A
C139        H143   1.084       .  S
C140        C233   1.482       .  S
C140        C141   1.403       .  A
C141        H144   1.083       .  S
C145        C219   1.503       .  S
C145        C146   1.415       .  A
C145        C150   1.407       .  A
C146        C147   1.411       .  A
C146        H151   1.082       .  S
C147        C639   1.486       .  S
C147        C148   1.399       .  A
C148        C149   1.391       .  A
C148        H152   1.085       .  S
C149        C306   1.476       .  S
C149        C150   1.394       .  A
C150        H153   1.083       .  S
C154        C583   1.487       .  S
C154        C155   1.398       .  A
C154        C159   1.411       .  A
C155        C156   1.391       .  A
C155        H160   1.085       .  S
C156        C292   1.477       .  S
C156        C157   1.396       .  A
C157        C158   1.408       .  A
C157        H161   1.084       .  S
C158        C205   1.507       .  S
C158        C159   1.417       .  A
C159        H162   1.082       .  S
O163       Ni171   1.925       .  S
O163        C173   1.281       .  A
O164       Ni171   1.926   1_565  S
O164        C882   1.283       .  A
O165       Ni171   1.913       .  S
O165        C175   1.279       .  A
O166       Ni171   1.916   1_565  S
O166        C884   1.282       .  A
O167       Ni172   1.920       .  S
O167        C176   1.281       .  A
O168       Ni172   1.920       .  S
O168        C883   1.283       .  A
O169       Ni172   1.921       .  S
O169        C174   1.280       .  A
O170       Ni172   1.919       .  S
O170        C881   1.282       .  A
Ni171      Ni880   2.388   1_545  S
Ni172      Ni879   2.388       .  S
C173        O878   1.282       .  A
C173        C250   1.485       .  S
C174        O872   1.283       .  A
C174        C418   1.483       .  S
C175        O876   1.283       .  A
C175        C390   1.486       .  S
C176        O874   1.282       .  A
C176        C222   1.496       .  S
O177       Ni185   1.919       .  S
O177        C187   1.281       .  A
O178       Ni185   1.921   1_564  S
O178        C896   1.284       .  A
O179       Ni185   1.922   1_554  S
O179        C189   1.280       .  A
O180       Ni185   1.915   1_565  S
O180        C898   1.280       .  A
O181       Ni186   1.922       .  S
O181        C190   1.281       .  A
O182       Ni186   1.915   1_554  S
O182        C897   1.281       .  A
O183       Ni186   1.910   1_554  S
O183        C188   1.279       .  A
O184       Ni186   1.912       .  S
O184        C895   1.281       .  A
Ni185      Ni894   2.388   1_545  S
Ni186      Ni893   2.388       .  S
C187        O892   1.281       .  A
C187        C362   1.493       .  S
C188        O886   1.284       .  A
C188        C499   1.495       .  S
C189        O890   1.281       .  A
C189        C530   1.479       .  S
C190        O888   1.280       .  A
C190        C334   1.478       .  S
O191       Ni199   1.919       .  S
O191        C201   1.281       .  A
O192       Ni199   1.920       .  S
O192        C202   1.283       .  A
O193       Ni199   1.918       .  S
O193        C203   1.279       .  A
O194       Ni199   1.919       .  S
O194        C204   1.281       .  A
O195       Ni200   1.923       .  S
O195        C204   1.280       .  A
O196       Ni200   1.922       .  S
O196        C203   1.282       .  A
O197       Ni200   1.923       .  S
O197        C202   1.281       .  A
O198       Ni200   1.918       .  S
O198        C201   1.283       .  A
Ni199      Ni200   2.388       .  S
C201        C208   1.500       .  S
C202        C404   1.493       .  S
C203        C373   1.479       .  S
C204        C236   1.479       .  S
C205        C206   1.420       .  A
C205        C210   1.417       .  A
C206        C207   1.409       .  A
C206        C211   1.452       .  S
C207        C208   1.416       .  A
C207        C214   1.455       .  S
C208        C209   1.419       .  A
C209        C210   1.417       .  A
C209        C212   1.450       .  S
C210        C213   1.450       .  S
C211        N218   1.157       .  T
C212        N217   1.157       .  T
C213        N215   1.157       .  T
C214        N216   1.158       .  T
C219        C220   1.417       .  A
C219        C224   1.419       .  A
C220        C221   1.416       .  A
C220        C225   1.449       .  S
C221        C222   1.417       .  A
C221        C228   1.450       .  S
C222        C223   1.415       .  A
C223        C224   1.408       .  A
C223        C226   1.454       .  S
C224        C227   1.452       .  S
C225        N232   1.157       .  T
C226        N939   1.158       .  T
C227        N229   1.157       .  T
C228        N230   1.157       .  T
N231        C934   1.158       .  T
C233        C234   1.408       .  A
C233        C238   1.409       .  A
C234        C235   1.411       .  A
C234        C239   1.447       .  S
C235        C236   1.411       .  A
C235        C242   1.449       .  S
C236        C237   1.411       .  A
C237        C238   1.411       .  A
C237        C240   1.448       .  S
C238        C241   1.450       .  S
C239        N246   1.156       .  T
C240        N245   1.157       .  T
C241        N243   1.157       .  T
C242        N244   1.157       .  T
C247        C248   1.412       .  A
C247        C252   1.412       .  A
C248        C249   1.411       .  A
C248        C253   1.450       .  S
C249        C250   1.408       .  A
C249        C964   1.447       .  S
C250        C251   1.413       .  A
C251        C252   1.414       .  A
C251        C254   1.450       .  S
C252        C255   1.450       .  S
C253        N260   1.157       .  T
C254        N259   1.157       .  T
C255        N257   1.157       .  T
C256        C957   1.447       .  S
C256        N258   1.156       .  T
C261        C262   1.425       .  A
C261        C266   1.425       .  A
C262        C263   1.413       .  A
C262        C267   1.446       .  S
C263        C264   1.404       .  A
C263        C270   1.453       .  S
C264        C265   1.405       .  A
C265        C266   1.411       .  A
C265        C268   1.454       .  S
C266        C269   1.445       .  S
C267        N274   1.157       .  T
C268        N273   1.157       .  T
C269        N979   1.157       .  T
C270        N272   1.157       .  T
N271        C977   1.157       .  T
C275        C276   1.423       .  A
C275        C280   1.425       .  A
C276        C277   1.412       .  A
C276        C281   1.447       .  S
C277        C278   1.406       .  A
C277        C284   1.452       .  S
C278        C279   1.404       .  A
C279        C280   1.411       .  A
C279        C282   1.454       .  S
C280       C1699   1.444       .  S
C281        N288   1.157       .  T
C282        N287   1.157       .  T
C283       C1696   1.444       .  S
C283        N285   1.157       .  T
C284        N286   1.157       .  T
C289        C290   1.427       .  A
C289        C294   1.423       .  A
C290        C291   1.412       .  A
C290        C295   1.445       .  S
C291        C292   1.401       .  A
C291        C298   1.452       .  S
C292        C293   1.403       .  A
C293        C294   1.405       .  A
C293        C296   1.454       .  S
C294        C297   1.446       .  S
C295        N302   1.157       .  T
C296        N301   1.157       .  T
C297       N1715   1.157       .  T
C298        N300   1.157       .  T
N299       C1713   1.157       .  T
C303        C304   1.423       .  A
C303        C308   1.425       .  A
C304        C305   1.405       .  A
C304        C309   1.445       .  S
C305        C306   1.403       .  A
C305        C312   1.454       .  S
C306        C307   1.402       .  A
C307        C308   1.412       .  A
C307        C310   1.451       .  S
C308       C1019   1.446       .  S
C309        N316   1.157       .  T
C310        N315   1.157       .  T
C311       C1016   1.446       .  S
C311        N313   1.157   1_565  T
C312        N314   1.157       .  T
C317        C318   1.400       .  A
C317        C322   1.404       .  A
C318        C319   1.409       .  A
C318        C323   1.452       .  S
C319        C320   1.426       .  A
C319       C1034   1.446       .  S
C320        C321   1.424       .  A
C321        C322   1.406       .  A
C321       C1740   1.446       .  S
C322        C325   1.455       .  S
C323        N330   1.157       .  T
C324       C1737   1.446       .  S
C324        N329   1.157       .  T
C325        N327   1.157       .  T
C326       C1027   1.446       .  S
C326        N328   1.157       .  T
C331        C332   1.411       .  A
C331        C336   1.409       .  A
C332        C333   1.408       .  A
C332        C337   1.453       .  S
C333        C334   1.410       .  A
C333        C340   1.447       .  S
C334        C335   1.412       .  A
C335        C336   1.410       .  A
C335        C338   1.448       .  S
C336        C339   1.450       .  S
C337        N344   1.157       .  T
C338       N1051   1.156       .  T
C339        N341   1.157       .  T
C340        N342   1.156   1_556  T
N343       C1046   1.156   1_545  T
C345        C346   1.424       .  A
C345        C350   1.423       .  A
C346        C347   1.412       .  A
C346        C351   1.445       .  S
C347        C348   1.405       .  A
C347        C354   1.454       .  S
C348        C349   1.404       .  A
C349        C350   1.409       .  A
C349        C352   1.453       .  S
C350        C353   1.447       .  S
C351        N358   1.157       .  T
C352        N357   1.157       .  T
C353        N355   1.157       .  T
C354        N356   1.157       .  T
C359        C360   1.415       .  A
C359        C364   1.412       .  A
C360        C361   1.412       .  A
C360        C365   1.452       .  S
C361        C362   1.417       .  A
C361        C368   1.451       .  S
C362        C363   1.418       .  A
C363        C364   1.407       .  A
C363        C366   1.452   1_545  S
C364        C367   1.452       .  S
C365        N372   1.158       .  T
C366       N1079   1.157       .  T
C367        N369   1.157   1_545  T
C368        N370   1.158       .  T
N371       C1074   1.157       .  T
C373        C374   1.410       .  A
C373        C378   1.408       .  A
C374        C375   1.410       .  A
C374        C379   1.447       .  S
C375        C376   1.409       .  A
C375        C382   1.450       .  S
C376        C377   1.409       .  A
C377        C378   1.409       .  A
C377        C380   1.447       .  S
C378        C381   1.446       .  S
C379        N386   1.157       .  T
C380        N385   1.156       .  T
C381        N383   1.155       .  T
C382        N384   1.157       .  T
C387        C388   1.417       .  A
C387        C392   1.414       .  A
C388        C389   1.414       .  A
C388        C393   1.449       .  S
C389        C390   1.414       .  A
C389        C396   1.448       .  S
C390        C391   1.411       .  A
C391        C392   1.407       .  A
C391        C394   1.453       .  S
C392        C395   1.449       .  S
C393        N400   1.157       .  T
C394        N399   1.157       .  T
C395        N397   1.156       .  T
C396        N398   1.156       .  T
C401        C402   1.418       .  A
C401        C406   1.416       .  A
C402        C403   1.417       .  A
C402        C407   1.450       .  S
C403        C404   1.417       .  A
C403        C410   1.451       .  S
C404        C405   1.414       .  A
C405        C406   1.408       .  A
C405        C408   1.453       .  S
C406        C409   1.450       .  S
C407        N414   1.157       .  T
C408        N413   1.158       .  T
C409        N411   1.156       .  T
C410        N412   1.158       .  T
C415        C416   1.409       .  A
C415        C420   1.411       .  A
C416        C417   1.412       .  A
C416        C421   1.450       .  S
C417        C418   1.413       .  A
C417        C424   1.449       .  S
C418        C419   1.410       .  A
C419        C420   1.412       .  A
C419        C422   1.448       .  S
C420        C423   1.450       .  S
C421        N428   1.157       .  T
C422       N1135   1.157       .  T
C423        N425   1.157       .  T
C424        N426   1.157       .  T
N427       C1130   1.157       .  T
C429        C430   1.425       .  A
C429        C434   1.423       .  A
C430        C431   1.412       .  A
C430        C435   1.446       .  S
C431        C432   1.405       .  A
C431        C438   1.452       .  S
C432        C433   1.405       .  A
C433        C434   1.409       .  A
C433        C436   1.451       .  S
C434       C1145   1.446       .  S
C435        N442   1.157   1_545  T
C436        N441   1.157       .  T
C437       C1142   1.446       .  S
C437        N439   1.157       .  T
C438        N440   1.157       .  T
C443        C444   1.424       .  A
C443        C448   1.425       .  A
C444        C445   1.413       .  A
C444       C1865   1.445       .  S
C445        C446   1.405       .  A
C445        C452   1.451       .  S
C446        C447   1.405       .  A
C447        C448   1.411       .  A
C447        C450   1.452       .  S
C448        C451   1.445       .  S
C449       C1860   1.445       .  S
C449        N456   1.157       .  T
C450        N455   1.157       .  T
C451        N453   1.157       .  T
C452        N454   1.157       .  T
C457        C458   1.423       .  A
C457        C462   1.426       .  A
C458        C459   1.410       .  A
C458        C463   1.445       .  S
C459        C460   1.405       .  A
C459        C466   1.453       .  S
C460        C461   1.404       .  A
C461        C462   1.414       .  A
C461        C464   1.453       .  S
C462        C465   1.445       .  S
C463        N470   1.156       .  T
C464        N469   1.157       .  T
C465       N1883   1.157       .  T
C466        N468   1.157       .  T
N467       C1881   1.157       .  T
C471        C472   1.425       .  A
C471        C476   1.424       .  A
C472        C473   1.412       .  A
C472        C477   1.445       .  S
C473        C474   1.404       .  A
C473        C480   1.453       .  S
C474        C475   1.405       .  A
C475        C476   1.411       .  A
C475        C478   1.454       .  S
C476        C479   1.445       .  S
C477        N484   1.157       .  T
C478        N483   1.157       .  T
C479        N481   1.157       .  T
C480        N482   1.157       .  T
C485        C486   1.403       .  A
C485        C490   1.402       .  A
C486        C487   1.406       .  A
C486        C491   1.452       .  S
C487        C488   1.423       .  A
C487        C494   1.445       .  S
C488        C489   1.427       .  A
C489        C490   1.414       .  A
C489        C492   1.444       .  S
C490        C493   1.452       .  S
C491        N498   1.157       .  T
C492        N497   1.157   1_455  T
C493        N495   1.157       .  T
C494        N496   1.157       .  T
C499        C500   1.418       .  A
C499        C504   1.416       .  A
C500        C501   1.411       .  A
C500        C505   1.452       .  S
C501        C502   1.412       .  A
C501        C508   1.449       .  S
C502        C503   1.415       .  A
C503        C504   1.409       .  A
C503        C506   1.453       .  S
C504        C507   1.450       .  S
C505        N512   1.158       .  T
C506        N511   1.157       .  T
C507       N1217   1.156       .  T
C508        N510   1.156       .  T
N509       C1215   1.156       .  T
C513        C514   1.402       .  A
C513        C518   1.403       .  A
C514        C515   1.406       .  A
C514        C519   1.453       .  S
C515        C516   1.424       .  A
C515        C522   1.445       .  S
C516        C517   1.425       .  A
C517        C518   1.410       .  A
C517        C520   1.445       .  S
C518        C521   1.453       .  S
C519        N526   1.157       .  T
C520        N525   1.157       .  T
C521        N523   1.157       .  T
C522        N524   1.157       .  T
C527        C528   1.411       .  A
C527        C532   1.410       .  A
C528        C529   1.408       .  A
C528        C533   1.451       .  S
C529        C530   1.411       .  A
C529        C536   1.449       .  S
C530        C531   1.411       .  A
C531        C532   1.410       .  A
C531        C534   1.446       .  S
C532        C535   1.452       .  S
C533        N540   1.157       .  T
C534        N539   1.156   1_554  T
C535        N537   1.157       .  T
C536       N1246   1.156   1_545  T
N538       C1244   1.156       .  T
C541        C542   1.414       .  A
C541        C546   1.413       .  A
C542        C543   1.408       .  A
C542        C547   1.455       .  S
C543        C544   1.422       .  A
C543       C1966   1.453       .  S
C544        C545   1.422       .  A
C545        C546   1.415       .  A
C545        C548   1.451       .  S
C546        C549   1.451       .  S
C547        N554   1.157       .  T
C548        N553   1.158       .  T
C549        N551   1.157       .  T
C550       C1959   1.453   1_455  S
C550        N552   1.158       .  T
C555        C556   1.412       .  A
C555        C560   1.412       .  A
C556        C557   1.415       .  A
C556        C561   1.447       .  S
C557        C558   1.414       .  A
C557        C564   1.448       .  S
C558        C559   1.413       .  A
C559        C560   1.409       .  A
C559        C562   1.450       .  S
C560        C563   1.451       .  S
C561        N568   1.156       .  T
C562        N567   1.157       .  T
C563       N1981   1.157   1_554  T
C564        N566   1.157       .  T
N565       C1979   1.157   1_556  T
C569        C570   1.415       .  A
C569        C574   1.411       .  A
C570        C571   1.410       .  A
C570        C575   1.452       .  S
C571        C572   1.410       .  A
C571        C578   1.450       .  S
C572        C573   1.412       .  A
C573        C574   1.409       .  A
C573        C576   1.451       .  S
C574        C577   1.450       .  S
C575        N582   1.157       .  T
C576        N581   1.157       .  T
C577       N1995   1.157   1_455  T
C578        N580   1.157       .  T
N579       C1993   1.157       .  T
C583        C584   1.411       .  A
C583        C588   1.412       .  A
C584        C585   1.413       .  A
C584        C589   1.452       .  S
C585        C586   1.414       .  A
C585        C592   1.448       .  S
C586        C587   1.413       .  A
C587        C588   1.411       .  A
C587        C590   1.451       .  S
C588        C591   1.450       .  S
C589        N596   1.157       .  T
C590       N2011   1.157       .  T
C591        N593   1.157       .  T
C592        N594   1.156       .  T
N595       C2006   1.157       .  T
C597        C598   1.411       .  A
C597        C602   1.411       .  A
C598        C599   1.408       .  A
C598        C603   1.451       .  S
C599        C600   1.411       .  A
C599        C606   1.450       .  S
C600        C601   1.412       .  A
C601        C602   1.412       .  A
C601        C604   1.449       .  S
C602        C605   1.449       .  S
C603        N610   1.157       .  T
C604        N609   1.157       .  T
C605        N607   1.157       .  T
C606        N608   1.157   1_554  T
C611        C612   1.413       .  A
C611        C616   1.415       .  A
C612        C613   1.406       .  A
C612        C617   1.452       .  S
C613        C614   1.407       .  A
C613        C620   1.446       .  S
C614        C615   1.413       .  A
C615        C616   1.413       .  A
C615        C618   1.450       .  S
C616        C619   1.451       .  S
C617        N624   1.157       .  T
C618        N623   1.157       .  T
C619        N621   1.157       .  T
C620        N622   1.155       .  T
C625        C626   1.412       .  A
C625        C630   1.414       .  A
C626        C627   1.406       .  A
C626        C631   1.455       .  S
C627        C628   1.423       .  A
C627        C634   1.451       .  S
C628        C629   1.422       .  A
C629        C630   1.417       .  A
C629        C632   1.450       .  S
C630        C633   1.451       .  S
C631        N638   1.157       .  T
C632        N637   1.158       .  T
C633        N635   1.158       .  T
C634        N636   1.157       .  T
C639        C640   1.413       .  A
C639        C644   1.411       .  A
C640        C641   1.409       .  A
C640        C645   1.451       .  S
C641        C642   1.413       .  A
C641        C648   1.449       .  S
C642        C643   1.415       .  A
C643        C644   1.412       .  A
C643        C646   1.449       .  S
C644        C647   1.451       .  S
C645        N652   1.157       .  T
C646        N651   1.156       .  T
C647        N649   1.157       .  T
C648        N650   1.156       .  T
C653        C654   1.413       .  A
C653        C658   1.412       .  A
C654        C655   1.416       .  A
C654        C659   1.451       .  S
C655        C656   1.417       .  A
C655        C662   1.450       .  S
C656        C657   1.415       .  A
C657        C658   1.406       .  A
C657        C660   1.451       .  S
C658        C661   1.453       .  S
C659        N666   1.158       .  T
C660        N665   1.156       .  T
C661       N2079   1.157       .  T
C662        N664   1.157       .  T
N663       C2077   1.157       .  T
C667        C668   1.409       .  A
C667        C672   1.414       .  A
C668        C669   1.406       .  A
C668       C2089   1.448       .  S
C669        C670   1.411       .  A
C669        C676   1.451       .  S
C670        C671   1.409       .  A
C671        C672   1.412       .  A
C671        C674   1.450       .  S
C672        C675   1.450       .  S
C673       C2084   1.448       .  S
C673        N680   1.156       .  T
C674        N679   1.157       .  T
C675        N677   1.157       .  T
C676        N678   1.157       .  T
C681        C682   1.414       .  A
C681        C686   1.422       .  A
C682        C683   1.402       .  A
C682        C687   1.453       .  S
C683        C684   1.420       .  A
C683        C690   1.453       .  S
C684        C685   1.422       .  A
C685        C686   1.419       .  A
C685        C688   1.450       .  S
C686        C689   1.452       .  S
C687       N2110   1.158   1_455  T
C688        N693   1.158       .  T
C689        N691   1.158       .  T
C690        N692   1.157       .  T
N694       C2103   1.158       .  T
C695        C696   1.412       .  A
C695        C700   1.414       .  A
C696        C697   1.405       .  A
C696        C701   1.451       .  S
C697        C698   1.408       .  A
C697        C704   1.444       .  S
C698        C699   1.410       .  A
C699        C700   1.416       .  A
C699        C702   1.449       .  S
C700        C703   1.444       .  S
C701        N708   1.156       .  T
C702        N707   1.157       .  T
C703        N705   1.156       .  T
C704        N706   1.154       .  T
O709       Ni717   1.918       .  S
O709       C2135   1.281       .  A
O710       Ni717   1.915       .  S
O710        C720   1.279       .  A
O711       Ni717   1.917       .  S
O711       C2137   1.283       .  A
O712       Ni717   1.921       .  S
O712        C722   1.281       .  A
O713       Ni718   1.914   1_655  S
O713       C2138   1.281       .  A
O714       Ni718   1.916       .  S
O714        C721   1.280       .  A
O715       Ni718   1.917   1_655  S
O715       C2136   1.282       .  A
O716       Ni718   1.920       .  S
O716        C719   1.281       .  A
Ni717     Ni2134   2.387       .  S
Ni718     Ni2133   2.387   1_455  S
C719       O2125   1.281       .  A
C719       C1406   1.483       .  S
C720       O2131   1.282       .  A
C720       C1375   1.478       .  S
C721       O2127   1.283   1_455  A
C721       C1389   1.502       .  S
C722       O2129   1.281       .  A
C722       C1361   1.483       .  S
O723       Ni731   1.915       .  S
O723        C733   1.279       .  A
O724       Ni731   1.913   1_554  S
O724        C734   1.279       .  A
O725       Ni731   1.930   1_554  S
O725        C735   1.284       .  A
O726       Ni731   1.924       .  S
O726        C736   1.285       .  A
O727       Ni732   1.912   1_556  S
O727        C736   1.278       .  A
O728       Ni732   1.907       .  S
O728        C735   1.280       .  A
O729       Ni732   1.925       .  S
O729        C734   1.282       .  A
O730       Ni732   1.923   1_556  S
O730        C733   1.283       .  A
Ni731      Ni732   2.386   1_556  S
C733       C1350   1.488       .  S
C734       C1308   1.479       .  S
C735       C1336   1.505       .  S
C736       C1322   1.484       .  S
O737       Ni745   1.916       .  S
O737       C2163   1.280       .  A
O738       Ni745   1.920   1_556  S
O738        C748   1.280       .  A
O739       Ni745   1.918   1_556  S
O739       C2165   1.283       .  A
O740       Ni745   1.923       .  S
O740        C750   1.282       .  A
O741       Ni746   1.911   1_655  S
O741       C2166   1.280       .  A
O742       Ni746   1.910   1_556  S
O742        C749   1.278       .  A
O743       Ni746   1.925   1_656  S
O743       C2164   1.283       .  A
O744       Ni746   1.928       .  S
O744        C747   1.283       .  A
Ni745     Ni2162   2.386       .  S
Ni746     Ni2161   2.386   1_455  S
C747       O2153   1.280       .  A
C747       C1263   1.485       .  S
C748       O2159   1.283       .  A
C748       C1294   1.488       .  S
C749       O2155   1.283       .  A
C749       C1277   1.481       .  S
C750       O2157   1.281       .  A
C750       C1252   1.503       .  S
C751       C1235   1.478       .  S
C751        C752   1.397       .  A
C751        C756   1.407       .  A
C752        C753   1.391       .  A
C752        H757   1.085       .  S
C753       C1221   1.477       .  S
C753        C754   1.398       .  A
C754        C755   1.407       .  A
C754        H758   1.085       .  S
C755       C1364   1.495       .  S
C755        C756   1.410       .  A
C756        H759   1.083       .  S
C760       C1403   1.494       .  S
C760        C761   1.410       .  A
C760        C765   1.405       .  A
C761        C762   1.414       .  A
C761        H766   1.083       .  S
C762       C1210   1.492       .  S
C762        C763   1.405       .  A
C763        C764   1.393       .  A
C763        H767   1.085       .  S
C764       C1193   1.480       .  S
C764        C765   1.394       .  A
C765        H768   1.085       .  S
C769       C1224   1.518       .  S
C769       C2186   1.434       .  A
C770       C1151   1.526       .  S
C770       C2185   1.435   1_455  A
C770        C771   1.434       .  A
C771       C1137   1.522       .  S
C772       C1196   1.522       .  S
C772       C2189   1.436   1_455  A
C773       C1165   1.523       .  S
C773       C2188   1.436       .  A
C773        C774   1.436       .  A
C774       C1179   1.522       .  S
C775       C1123   1.484       .  S
C775        C776   1.402       .  A
C775        C780   1.408       .  A
C776        C777   1.397       .  A
C776        H781   1.084       .  S
C777       C1182   1.484       .  S
C777        C778   1.394       .  A
C778        C779   1.406       .  A
C778        H782   1.085       .  S
C779       C1333   1.498       .  S
C779        C780   1.411       .  A
C780        H783   1.082       .  S
C784       C1266   1.497       .  S
C784        C785   1.405       .  A
C784        C789   1.411       .  A
C785        C786   1.396       .  A
C785        H790   1.085       .  S
C786       C1154   1.488       .  S
C786        C787   1.399       .  A
C787        C788   1.408       .  A
C787        H791   1.084       .  S
C788       C1109   1.502       .  S
C788        C789   1.412       .  A
C789        H792   1.082       .  S
C793       C1095   1.499       .  S
C793        C794   1.410       .  A
C793        C798   1.410       .  A
C794        C795   1.407       .  A
C794        H799   1.082       .  S
C795       C1305   1.486       .  S
C795        C796   1.400       .  A
C796        C797   1.394       .  A
C796        H800   1.085       .  S
C797       C1140   1.484       .  S
C797        C798   1.400       .  A
C798        H801   1.084       .  S
C802       C1249   1.497       .  S
C802        C803   1.407       .  A
C802        C807   1.411       .  A
C803        C804   1.396       .  A
C803        H808   1.084       .  S
C804       C1168   1.486       .  S
C804        C805   1.397       .  A
C805        C806   1.403       .  A
C805        H809   1.085       .  S
C806       C1084   1.482       .  S
C806        C807   1.406       .  A
C807        H810   1.082       .  S
C811       C1067   1.492       .  S
C811        C812   1.407       .  A
C811        C816   1.407       .  A
C812        C813   1.398       .  A
C812        H817   1.084       .  S
C813       C1056   1.480       .  S
C813        C814   1.395       .  A
C814        C815   1.400       .  A
C814        H818   1.085       .  S
C815       C1378   1.479       .  S
C815        C816   1.402       .  A
C816        H819   1.083       .  S
C820       C1392   1.511       .  S
C820        C821   1.418       .  A
C820        C825   1.411       .  A
C821        C822   1.408       .  A
C821        H826   1.078       .  S
C822       C1039   1.478       .  S
C822        C823   1.393       .  A
C823        C824   1.385       .  A
C823        H827   1.086       .  S
C824       C1025   1.473       .  S
C824        C825   1.394       .  A
C825        H828   1.084       .  S
C829       C1053   1.517       .  S
C829       C2250   1.435       .  A
C830       C1011   1.519       .  S
C830        C831   1.429       .  A
C831        C997   1.523       .  S
C831       C2248   1.433       .  A
C832       C1028   1.517       .  S
C832       C2247   1.433   1_455  A
C833        C969   1.524       .  S
C833        C834   1.438       .  A
C834        C983   1.521       .  S
C834       C2245   1.435   1_455  A
C835        C955   1.488       .  S
C835        C836   1.407       .  A
C835        C840   1.406       .  A
C836        C837   1.406       .  A
C836        H841   1.083       .  S
C837       C1319   1.486       .  S
C837        C838   1.400       .  A
C838        C839   1.396       .  A
C838        H842   1.085       .  S
C839        C972   1.485       .  S
C839        C840   1.402       .  A
C840        H843   1.084       .  S
C844       C1280   1.482       .  S
C844        C845   1.401       .  A
C844        C849   1.404       .  A
C845        C846   1.398       .  A
C845        H850   1.085       .  S
C846        C986   1.485       .  S
C846        C847   1.401       .  A
C847        C848   1.404       .  A
C847        H851   1.084       .  S
C848        C941   1.482       .  S
C848        C849   1.403       .  A
C849        H852   1.083       .  S
C853        C927   1.503       .  S
C853        C854   1.415       .  A
C853        C858   1.407       .  A
C854        C855   1.411       .  A
C854        H859   1.082       .  S
C855       C1347   1.486       .  S
C855        C856   1.399       .  A
C856        C857   1.391       .  A
C856        H860   1.085       .  S
C857       C1014   1.476       .  S
C857        C858   1.394       .  A
C858        H861   1.083       .  S
C862       C1291   1.487       .  S
C862        C863   1.398       .  A
C862        C867   1.411       .  A
C863        C864   1.391       .  A
C863        H868   1.085       .  S
C864       C1000   1.477       .  S
C864        C865   1.396       .  A
C865        C866   1.408       .  A
C865        H869   1.084       .  S
C866        C913   1.507       .  S
C866        C867   1.417       .  A
C867        H870   1.082       .  S
O871       Ni879   1.925       .  S
O871        C881   1.281       .  A
O872       Ni879   1.926       .  S
O873       Ni879   1.913       .  S
O873        C883   1.279       .  A
O874       Ni879   1.916       .  S
O875       Ni880   1.920       .  S
O875        C884   1.281       .  A
O876       Ni880   1.920   1_545  S
O877       Ni880   1.921       .  S
O877        C882   1.280       .  A
O878       Ni880   1.919   1_545  S
C881        C958   1.485       .  S
C882       C1126   1.483       .  S
C883       C1098   1.486       .  S
C884        C930   1.496       .  S
O885       Ni893   1.919       .  S
O885        C895   1.281       .  A
O886       Ni893   1.921   1_554  S
O887       Ni893   1.922   1_554  S
O887        C897   1.280       .  A
O888       Ni893   1.915       .  S
O889       Ni894   1.922       .  S
O889        C898   1.281       .  A
O890       Ni894   1.915   1_544  S
O891       Ni894   1.910   1_554  S
O891        C896   1.279       .  A
O892       Ni894   1.912   1_545  S
C895       C1070   1.493       .  S
C896       C1207   1.495       .  S
C897       C1238   1.479       .  S
C898       C1042   1.478       .  S
O899       Ni907   1.919       .  S
O899        C909   1.281       .  A
O900       Ni907   1.920       .  S
O900        C910   1.283       .  A
O901       Ni907   1.918       .  S
O901        C911   1.279       .  A
O902       Ni907   1.919       .  S
O902        C912   1.281       .  A
O903       Ni908   1.923       .  S
O903        C912   1.280       .  A
O904       Ni908   1.922       .  S
O904        C911   1.282       .  A
O905       Ni908   1.923       .  S
O905        C910   1.281       .  A
O906       Ni908   1.918       .  S
O906        C909   1.283       .  A
Ni907      Ni908   2.388       .  S
C909        C916   1.500       .  S
C910       C1112   1.493       .  S
C911       C1081   1.479       .  S
C912        C944   1.479       .  S
C913        C914   1.420       .  A
C913        C918   1.417       .  A
C914        C915   1.409       .  A
C914        C919   1.452       .  S
C915        C916   1.416       .  A
C915        C922   1.455       .  S
C916        C917   1.419       .  A
C917        C918   1.417       .  A
C917        C920   1.450       .  S
C918        C921   1.450       .  S
C919        N926   1.157       .  T
C920        N925   1.157       .  T
C921        N923   1.157       .  T
C922        N924   1.158       .  T
C927        C928   1.417       .  A
C927        C932   1.419       .  A
C928        C929   1.416       .  A
C928        C933   1.449       .  S
C929        C930   1.417       .  A
C929        C936   1.450       .  S
C930        C931   1.415       .  A
C931        C932   1.408       .  A
C931        C934   1.454       .  S
C932        C935   1.452       .  S
C933        N940   1.157       .  T
C935        N937   1.157       .  T
C936        N938   1.157       .  T
C941        C942   1.408       .  A
C941        C946   1.409       .  A
C942        C943   1.411       .  A
C942        C947   1.447       .  S
C943        C944   1.411       .  A
C943        C950   1.449       .  S
C944        C945   1.411       .  A
C945        C946   1.411       .  A
C945        C948   1.448       .  S
C946        C949   1.450       .  S
C947        N954   1.156       .  T
C948        N953   1.157       .  T
C949        N951   1.157       .  T
C950        N952   1.157       .  T
C955        C956   1.412       .  A
C955        C960   1.412       .  A
C956        C957   1.411       .  A
C956        C961   1.450       .  S
C957        C958   1.408       .  A
C958        C959   1.413       .  A
C959        C960   1.414       .  A
C959        C962   1.450       .  S
C960        C963   1.450       .  S
C961        N968   1.157       .  T
C962        N967   1.157       .  T
C963        N965   1.157       .  T
C964        N966   1.156   1_545  T
C969        C970   1.425       .  A
C969        C974   1.425       .  A
C970        C971   1.413       .  A
C970        C975   1.446       .  S
C971        C972   1.404       .  A
C971        C978   1.453       .  S
C972        C973   1.405       .  A
C973        C974   1.411       .  A
C973        C976   1.454       .  S
C974        C977   1.445       .  S
C975        N982   1.157       .  T
C976        N981   1.157       .  T
C978        N980   1.157       .  T
C983        C984   1.423       .  A
C983        C988   1.425       .  A
C984        C985   1.412       .  A
C984        C989   1.447       .  S
C985        C986   1.406       .  A
C985        C992   1.452       .  S
C986        C987   1.404       .  A
C987        C988   1.411       .  A
C987        C990   1.454       .  S
C988       C2407   1.444       .  S
C989        N996   1.157       .  T
C990        N995   1.157       .  T
C991       C2404   1.444       .  S
C991        N993   1.157       .  T
C992        N994   1.157       .  T
C997        C998   1.427       .  A
C997       C1002   1.423       .  A
C998        C999   1.412       .  A
C998       C1003   1.445       .  S
C999       C1000   1.401       .  A
C999       C1006   1.452       .  S
C1000      C1001   1.403       .  A
C1001      C1002   1.405       .  A
C1001      C1004   1.453       .  S
C1002      C1005   1.446       .  S
C1003      N1010   1.157       .  T
C1004      N1009   1.157       .  T
C1005      N2423   1.157       .  T
C1006      N1008   1.157       .  T
N1007      C2421   1.157       .  T
C1011      C1012   1.423       .  A
C1011      C1016   1.425       .  A
C1012      C1013   1.405       .  A
C1012      C1017   1.445       .  S
C1013      C1014   1.403       .  A
C1013      C1020   1.454       .  S
C1014      C1015   1.402       .  A
C1015      C1016   1.412       .  A
C1015      C1018   1.451       .  S
C1017      N1024   1.157       .  T
C1018      N1023   1.157       .  T
C1019      N1021   1.157       .  T
C1020      N1022   1.157       .  T
C1025      C1026   1.400       .  A
C1025      C1030   1.404       .  A
C1026      C1027   1.409       .  A
C1026      C1031   1.452       .  S
C1027      C1028   1.426       .  A
C1028      C1029   1.424       .  A
C1029      C1030   1.406       .  A
C1029      C2448   1.446       .  S
C1030      C1033   1.455       .  S
C1031      N1038   1.157       .  T
C1032      C2445   1.446       .  S
C1032      N1037   1.157       .  T
C1033      N1035   1.157       .  T
C1034      N1036   1.157       .  T
C1039      C1040   1.411       .  A
C1039      C1044   1.409       .  A
C1040      C1041   1.408       .  A
C1040      C1045   1.453       .  S
C1041      C1042   1.410       .  A
C1041      C1048   1.447       .  S
C1042      C1043   1.412       .  A
C1043      C1044   1.410       .  A
C1043      C1046   1.448       .  S
C1044      C1047   1.450       .  S
C1045      N1052   1.157       .  T
C1047      N1049   1.157       .  T
C1048      N1050   1.156   1_556  T
C1053      C1054   1.424       .  A
C1053      C1058   1.423       .  A
C1054      C1055   1.412       .  A
C1054      C1059   1.445       .  S
C1055      C1056   1.405       .  A
C1055      C1062   1.454       .  S
C1056      C1057   1.404       .  A
C1057      C1058   1.409       .  A
C1057      C1060   1.452       .  S
C1058      C1061   1.447       .  S
C1059      N1066   1.157       .  T
C1060      N1065   1.157       .  T
C1061      N1063   1.157       .  T
C1062      N1064   1.157       .  T
C1067      C1068   1.415       .  A
C1067      C1072   1.412       .  A
C1068      C1069   1.412       .  A
C1068      C1073   1.452       .  S
C1069      C1070   1.417       .  A
C1069      C1076   1.451       .  S
C1070      C1071   1.418       .  A
C1071      C1072   1.407       .  A
C1071      C1074   1.452       .  S
C1072      C1075   1.452       .  S
C1073      N1080   1.158       .  T
C1075      N1077   1.157       .  T
C1076      N1078   1.158       .  T
C1081      C1082   1.410       .  A
C1081      C1086   1.408       .  A
C1082      C1083   1.410       .  A
C1082      C1087   1.447       .  S
C1083      C1084   1.409       .  A
C1083      C1090   1.450       .  S
C1084      C1085   1.409       .  A
C1085      C1086   1.409       .  A
C1085      C1088   1.447       .  S
C1086      C1089   1.446       .  S
C1087      N1094   1.157       .  T
C1088      N1093   1.156       .  T
C1089      N1091   1.155       .  T
C1090      N1092   1.157       .  T
C1095      C1096   1.417       .  A
C1095      C1100   1.414       .  A
C1096      C1097   1.414       .  A
C1096      C1101   1.449       .  S
C1097      C1098   1.414       .  A
C1097      C1104   1.448       .  S
C1098      C1099   1.411       .  A
C1099      C1100   1.407       .  A
C1099      C1102   1.453       .  S
C1100      C1103   1.449       .  S
C1101      N1108   1.157       .  T
C1102      N1107   1.157       .  T
C1103      N1105   1.156       .  T
C1104      N1106   1.156       .  T
C1109      C1110   1.418       .  A
C1109      C1114   1.416       .  A
C1110      C1111   1.417       .  A
C1110      C1115   1.450       .  S
C1111      C1112   1.417       .  A
C1111      C1118   1.451       .  S
C1112      C1113   1.414       .  A
C1113      C1114   1.408       .  A
C1113      C1116   1.453       .  S
C1114      C1117   1.450       .  S
C1115      N1122   1.157       .  T
C1116      N1121   1.158       .  T
C1117      N1119   1.156       .  T
C1118      N1120   1.158       .  T
C1123      C1124   1.409       .  A
C1123      C1128   1.411       .  A
C1124      C1125   1.412       .  A
C1124      C1129   1.450       .  S
C1125      C1126   1.413       .  A
C1125      C1132   1.449       .  S
C1126      C1127   1.410       .  A
C1127      C1128   1.412       .  A
C1127      C1130   1.448       .  S
C1128      C1131   1.450       .  S
C1129      N1136   1.157       .  T
C1131      N1133   1.157       .  T
C1132      N1134   1.157       .  T
C1137      C1138   1.425       .  A
C1137      C1142   1.423       .  A
C1138      C1139   1.412       .  A
C1138      C1143   1.446       .  S
C1139      C1140   1.405       .  A
C1139      C1146   1.452       .  S
C1140      C1141   1.405       .  A
C1141      C1142   1.409       .  A
C1141      C1144   1.451       .  S
C1143      N1150   1.157       .  T
C1144      N1149   1.157       .  T
C1145      N1147   1.157       .  T
C1146      N1148   1.157       .  T
C1151      C1152   1.424       .  A
C1151      C1156   1.425       .  A
C1152      C1153   1.413       .  A
C1152      C2573   1.445       .  S
C1153      C1154   1.405       .  A
C1153      C1160   1.451       .  S
C1154      C1155   1.405       .  A
C1155      C1156   1.411       .  A
C1155      C1158   1.452       .  S
C1156      C1159   1.445       .  S
C1157      C2568   1.445       .  S
C1157      N1164   1.157       .  T
C1158      N1163   1.157       .  T
C1159      N1161   1.157       .  T
C1160      N1162   1.157       .  T
C1165      C1166   1.423       .  A
C1165      C1170   1.426       .  A
C1166      C1167   1.410       .  A
C1166      C1171   1.445       .  S
C1167      C1168   1.405       .  A
C1167      C1174   1.453       .  S
C1168      C1169   1.404       .  A
C1169      C1170   1.414       .  A
C1169      C1172   1.453       .  S
C1170      C1173   1.445       .  S
C1171      N1178   1.156       .  T
C1172      N1177   1.157       .  T
C1173      N2591   1.157       .  T
C1174      N1176   1.157       .  T
N1175      C2589   1.157       .  T
C1179      C1180   1.425       .  A
C1179      C1184   1.424       .  A
C1180      C1181   1.412       .  A
C1180      C1185   1.445       .  S
C1181      C1182   1.404       .  A
C1181      C1188   1.453       .  S
C1182      C1183   1.405       .  A
C1183      C1184   1.411       .  A
C1183      C1186   1.454       .  S
C1184      C1187   1.445       .  S
C1185      N1192   1.157       .  T
C1186      N1191   1.157       .  T
C1187      N1189   1.157       .  T
C1188      N1190   1.157       .  T
C1193      C1194   1.403       .  A
C1193      C1198   1.402       .  A
C1194      C1195   1.406       .  A
C1194      C1199   1.452       .  S
C1195      C1196   1.423       .  A
C1195      C1202   1.445       .  S
C1196      C1197   1.427       .  A
C1197      C1198   1.414       .  A
C1197      C1200   1.444       .  S
C1198      C1201   1.452       .  S
C1199      N1206   1.157       .  T
C1200      N1205   1.157   1_455  T
C1201      N1203   1.157       .  T
C1202      N1204   1.157       .  T
C1207      C1208   1.418       .  A
C1207      C1212   1.416       .  A
C1208      C1209   1.411       .  A
C1208      C1213   1.452       .  S
C1209      C1210   1.412       .  A
C1209      C1216   1.449       .  S
C1210      C1211   1.415       .  A
C1211      C1212   1.409       .  A
C1211      C1214   1.453       .  S
C1212      C1215   1.450   1_565  S
C1213      N1220   1.158       .  T
C1214      N1219   1.157       .  T
C1216      N1218   1.156       .  T
C1221      C1222   1.402       .  A
C1221      C1226   1.403       .  A
C1222      C1223   1.406       .  A
C1222      C1227   1.453       .  S
C1223      C1224   1.424       .  A
C1223      C1230   1.445       .  S
C1224      C1225   1.425       .  A
C1225      C1226   1.410       .  A
C1225      C1228   1.445       .  S
C1226      C1229   1.453       .  S
C1227      N1234   1.157       .  T
C1228      N1233   1.157       .  T
C1229      N1231   1.157       .  T
C1230      N1232   1.157       .  T
C1235      C1236   1.411       .  A
C1235      C1240   1.410       .  A
C1236      C1237   1.408       .  A
C1236      C1241   1.451       .  S
C1237      C1238   1.411       .  A
C1237      C1244   1.449       .  S
C1238      C1239   1.411       .  A
C1239      C1240   1.410       .  A
C1239      C1242   1.446       .  S
C1240      C1243   1.452       .  S
C1241      N1248   1.157       .  T
C1242      N1247   1.156   1_554  T
C1243      N1245   1.157       .  T
C1249      C1250   1.414       .  A
C1249      C1254   1.413       .  A
C1250      C1251   1.408       .  A
C1250      C1255   1.455       .  S
C1251      C1252   1.422       .  A
C1251      C2674   1.453       .  S
C1252      C1253   1.422       .  A
C1253      C1254   1.415       .  A
C1253      C1256   1.451       .  S
C1254      C1257   1.451       .  S
C1255      N1262   1.157       .  T
C1256      N1261   1.158       .  T
C1257      N1259   1.157       .  T
C1258      C2667   1.453   1_455  S
C1258      N1260   1.158       .  T
C1263      C1264   1.412       .  A
C1263      C1268   1.412       .  A
C1264      C1265   1.415       .  A
C1264      C1269   1.447       .  S
C1265      C1266   1.414       .  A
C1265      C1272   1.448       .  S
C1266      C1267   1.413       .  A
C1267      C1268   1.409       .  A
C1267      C1270   1.450       .  S
C1268      C1271   1.451       .  S
C1269      N1276   1.156       .  T
C1270      N1275   1.157       .  T
C1271      N2689   1.157   1_554  T
C1272      N1274   1.157       .  T
N1273      C2687   1.157   1_556  T
C1277      C1278   1.415       .  A
C1277      C1282   1.411       .  A
C1278      C1279   1.410       .  A
C1278      C1283   1.452       .  S
C1279      C1280   1.410       .  A
C1279      C1286   1.450       .  S
C1280      C1281   1.412       .  A
C1281      C1282   1.409       .  A
C1281      C1284   1.451       .  S
C1282      C1285   1.450       .  S
C1283      N1290   1.157       .  T
C1284      N1289   1.157       .  T
C1285      N2703   1.157   1_455  T
C1286      N1288   1.157       .  T
N1287      C2701   1.157       .  T
C1291      C1292   1.411       .  A
C1291      C1296   1.412       .  A
C1292      C1293   1.413       .  A
C1292      C1297   1.452       .  S
C1293      C1294   1.414       .  A
C1293      C1300   1.448       .  S
C1294      C1295   1.413       .  A
C1295      C1296   1.411       .  A
C1295      C1298   1.451       .  S
C1296      C1299   1.450       .  S
C1297      N1304   1.157       .  T
C1298      N2719   1.157       .  T
C1299      N1301   1.157       .  T
C1300      N1302   1.156       .  T
N1303      C2714   1.157       .  T
C1305      C1306   1.411       .  A
C1305      C1310   1.411       .  A
C1306      C1307   1.408       .  A
C1306      C1311   1.451       .  S
C1307      C1308   1.411       .  A
C1307      C1314   1.450       .  S
C1308      C1309   1.412       .  A
C1309      C1310   1.412       .  A
C1309      C1312   1.449       .  S
C1310      C1313   1.449       .  S
C1311      N1318   1.157       .  T
C1312      N1317   1.157       .  T
C1313      N1315   1.157       .  T
C1314      N1316   1.157   1_554  T
C1319      C1320   1.413       .  A
C1319      C1324   1.415       .  A
C1320      C1321   1.406       .  A
C1320      C1325   1.452       .  S
C1321      C1322   1.407       .  A
C1321      C1328   1.446       .  S
C1322      C1323   1.413       .  A
C1323      C1324   1.413       .  A
C1323      C1326   1.450       .  S
C1324      C1327   1.451       .  S
C1325      N1332   1.157       .  T
C1326      N1331   1.157       .  T
C1327      N1329   1.157       .  T
C1328      N1330   1.155       .  T
C1333      C1334   1.412       .  A
C1333      C1338   1.414       .  A
C1334      C1335   1.406       .  A
C1334      C1339   1.455       .  S
C1335      C1336   1.423       .  A
C1335      C1342   1.451       .  S
C1336      C1337   1.422       .  A
C1337      C1338   1.417       .  A
C1337      C1340   1.450       .  S
C1338      C1341   1.451       .  S
C1339      N1346   1.157       .  T
C1340      N1345   1.158       .  T
C1341      N1343   1.158       .  T
C1342      N1344   1.157       .  T
C1347      C1348   1.413       .  A
C1347      C1352   1.411       .  A
C1348      C1349   1.409       .  A
C1348      C1353   1.451       .  S
C1349      C1350   1.413       .  A
C1349      C1356   1.449       .  S
C1350      C1351   1.415       .  A
C1351      C1352   1.412       .  A
C1351      C1354   1.449       .  S
C1352      C1355   1.451       .  S
C1353      N1360   1.157       .  T
C1354      N1359   1.156       .  T
C1355      N1357   1.157       .  T
C1356      N1358   1.156       .  T
C1361      C1362   1.413       .  A
C1361      C1366   1.412       .  A
C1362      C1363   1.416       .  A
C1362      C1367   1.451       .  S
C1363      C1364   1.417       .  A
C1363      C1370   1.450       .  S
C1364      C1365   1.415       .  A
C1365      C1366   1.406       .  A
C1365      C1368   1.451       .  S
C1366      C1369   1.453       .  S
C1367      N1374   1.158       .  T
C1368      N1373   1.156       .  T
C1369      N2787   1.157       .  T
C1370      N1372   1.157       .  T
N1371      C2785   1.157       .  T
C1375      C1376   1.409       .  A
C1375      C1380   1.414       .  A
C1376      C1377   1.406       .  A
C1376      C2797   1.448       .  S
C1377      C1378   1.411       .  A
C1377      C1384   1.451       .  S
C1378      C1379   1.409       .  A
C1379      C1380   1.412       .  A
C1379      C1382   1.450       .  S
C1380      C1383   1.450       .  S
C1381      C2792   1.448       .  S
C1381      N1388   1.156       .  T
C1382      N1387   1.157       .  T
C1383      N1385   1.157       .  T
C1384      N1386   1.157       .  T
C1389      C1390   1.414       .  A
C1389      C1394   1.422       .  A
C1390      C1391   1.402       .  A
C1390      C1395   1.453       .  S
C1391      C1392   1.420       .  A
C1391      C1398   1.453       .  S
C1392      C1393   1.422       .  A
C1393      C1394   1.419       .  A
C1393      C1396   1.451       .  S
C1394      C1397   1.452       .  S
C1395      N2818   1.158   1_455  T
C1396      N1401   1.158       .  T
C1397      N1399   1.158       .  T
C1398      N1400   1.157       .  T
N1402      C2811   1.158       .  T
C1403      C1404   1.412       .  A
C1403      C1408   1.414       .  A
C1404      C1405   1.405       .  A
C1404      C1409   1.451       .  S
C1405      C1406   1.408       .  A
C1405      C1412   1.444       .  S
C1406      C1407   1.410       .  A
C1407      C1408   1.416       .  A
C1407      C1410   1.449       .  S
C1408      C1411   1.444       .  S
C1409      N1416   1.156       .  T
C1410      N1415   1.157       .  T
C1411      N1413   1.156       .  T
C1412      N1414   1.154       .  T
O1417     Ni1425   1.918   1_455  S
O1418     Ni1425   1.915       .  S
O1418      C1428   1.279       .  A
O1419     Ni1425   1.917       .  S
O1420     Ni1425   1.921       .  S
O1420      C1430   1.281       .  A
O1421     Ni1426   1.913       .  S
O1422     Ni1426   1.916       .  S
O1422      C1429   1.280       .  A
O1423     Ni1426   1.917       .  S
O1424     Ni1426   1.920       .  S
O1424      C1427   1.281       .  A
C1427      C2114   1.483       .  S
C1428      C2083   1.478       .  S
C1429      C2097   1.502       .  S
C1430      C2069   1.483       .  S
O1431     Ni1439   1.915       .  S
O1431      C1441   1.279       .  A
O1432     Ni1439   1.913   1_554  S
O1432      C1442   1.279       .  A
O1433     Ni1439   1.930   1_554  S
O1433      C1443   1.284       .  A
O1434     Ni1439   1.924       .  S
O1434      C1444   1.285       .  A
O1435     Ni1440   1.912   1_556  S
O1435      C1444   1.278       .  A
O1436     Ni1440   1.907       .  S
O1436      C1443   1.280       .  A
O1437     Ni1440   1.925       .  S
O1437      C1442   1.282       .  A
O1438     Ni1440   1.923   1_556  S
O1438      C1441   1.283       .  A
Ni1439    Ni1440   2.386   1_556  S
C1441      C2058   1.488       .  S
C1442      C2016   1.479       .  S
C1443      C2044   1.505       .  S
C1444      C2030   1.484       .  S
O1445     Ni1453   1.916   1_454  S
O1446     Ni1453   1.920       .  S
O1446      C1456   1.280       .  A
O1447     Ni1453   1.918   1_455  S
O1448     Ni1453   1.923   1_554  S
O1448      C1458   1.282       .  A
O1449     Ni1454   1.911       .  S
O1450     Ni1454   1.910   1_556  S
O1450      C1457   1.278       .  A
O1451     Ni1454   1.925   1_556  S
O1452     Ni1454   1.928       .  S
O1452      C1455   1.283       .  A
C1455      C1971   1.485       .  S
C1456      C2002   1.488       .  S
C1457      C1985   1.481       .  S
C1458      C1960   1.503       .  S
C1459      C1943   1.478       .  S
C1459      C1460   1.397       .  A
C1459      C1464   1.407       .  A
C1460      C1461   1.392       .  A
C1460      H1465   1.085       .  S
C1461      C1929   1.477       .  S
C1461      C1462   1.398       .  A
C1462      C1463   1.407       .  A
C1462      H1466   1.085       .  S
C1463      C2072   1.495       .  S
C1463      C1464   1.410       .  A
C1464      H1467   1.083       .  S
C1468      C2111   1.494       .  S
C1468      C1469   1.410       .  A
C1468      C1473   1.405       .  A
C1469      C1470   1.414       .  A
C1469      H1474   1.083       .  S
C1470      C1918   1.492       .  S
C1470      C1471   1.405       .  A
C1471      C1472   1.393       .  A
C1471      H1475   1.085       .  S
C1472      C1901   1.480       .  S
C1472      C1473   1.394       .  A
C1473      H1476   1.085       .  S
C1477      C1932   1.518       .  S
C1477      C2190   1.436   1_545  A
C1478      C1859   1.526       .  S
C1478      C1479   1.434       .  A
C1479      C1845   1.522       .  S
C1479      C2188   1.438   1_545  A
C1480      C1904   1.522       .  S
C1480      C2187   1.438       .  A
C1481      C1873   1.523       .  S
C1481      C1482   1.436       .  A
C1482      C1887   1.522       .  S
C1482      C2185   1.436       .  A
C1483      C1831   1.484       .  S
C1483      C1484   1.402       .  A
C1483      C1488   1.408       .  A
C1484      C1485   1.397       .  A
C1484      H1489   1.084       .  S
C1485      C1890   1.484       .  S
C1485      C1486   1.394       .  A
C1486      C1487   1.406       .  A
C1486      H1490   1.085       .  S
C1487      C2041   1.498       .  S
C1487      C1488   1.411       .  A
C1488      H1491   1.082       .  S
C1492      C1974   1.497       .  S
C1492      C1493   1.406       .  A
C1492      C1497   1.411       .  A
C1493      C1494   1.396       .  A
C1493      H1498   1.085       .  S
C1494      C1862   1.488       .  S
C1494      C1495   1.399       .  A
C1495      C1496   1.408       .  A
C1495      H1499   1.084       .  S
C1496      C1817   1.502       .  S
C1496      C1497   1.412       .  A
C1497      H1500   1.082       .  S
C1501      C1803   1.499       .  S
C1501      C1502   1.409       .  A
C1501      C1506   1.410       .  A
C1502      C1503   1.407       .  A
C1502      H1507   1.082       .  S
C1503      C2013   1.486       .  S
C1503      C1504   1.400       .  A
C1504      C1505   1.394       .  A
C1504      H1508   1.085       .  S
C1505      C1848   1.484       .  S
C1505      C1506   1.400       .  A
C1506      H1509   1.084       .  S
C1510      C1957   1.497       .  S
C1510      C1511   1.407       .  A
C1510      C1515   1.411       .  A
C1511      C1512   1.396       .  A
C1511      H1516   1.084       .  S
C1512      C1876   1.486       .  S
C1512      C1513   1.397       .  A
C1513      C1514   1.403       .  A
C1513      H1517   1.085       .  S
C1514      C1792   1.482       .  S
C1514      C1515   1.406       .  A
C1515      H1518   1.082       .  S
C1519      C1775   1.492       .  S
C1519      C1520   1.407       .  A
C1519      C1524   1.407       .  A
C1520      C1521   1.398       .  A
C1520      H1525   1.084       .  S
C1521      C1764   1.480       .  S
C1521      C1522   1.395       .  A
C1522      C1523   1.400       .  A
C1522      H1526   1.085       .  S
C1523      C2086   1.479       .  S
C1523      C1524   1.402       .  A
C1524      H1527   1.083       .  S
C1528      C2100   1.511       .  S
C1528      C1529   1.418       .  A
C1528      C1533   1.411       .  A
C1529      C1530   1.408       .  A
C1529      H1534   1.077       .  S
C1530      C1747   1.478       .  S
C1530      C1531   1.393       .  A
C1531      C1532   1.385       .  A
C1531      H1535   1.086       .  S
C1532      C1733   1.473       .  S
C1532      C1533   1.394       .  A
C1533      H1536   1.084       .  S
C1537      C1761   1.517       .  S
C1537      C2246   1.434   1_545  A
C1538      C1719   1.519       .  S
C1538      C2245   1.434       .  A
C1538      C1539   1.429       .  A
C1539      C1705   1.522       .  S
C1540      C1736   1.517       .  S
C1540      C2249   1.436       .  A
C1541      C1677   1.524       .  S
C1541      C2248   1.436   1_545  A
C1541      C1542   1.438       .  A
C1542      C1691   1.521       .  S
C1543      C1663   1.488       .  S
C1543      C1544   1.407       .  A
C1543      C1548   1.406       .  A
C1544      C1545   1.406       .  A
C1544      H1549   1.083       .  S
C1545      C2027   1.486       .  S
C1545      C1546   1.400       .  A
C1546      C1547   1.396       .  A
C1546      H1550   1.085       .  S
C1547      C1680   1.485       .  S
C1547      C1548   1.402       .  A
C1548      H1551   1.084       .  S
C1552      C1988   1.482       .  S
C1552      C1553   1.401       .  A
C1552      C1557   1.404       .  A
C1553      C1554   1.398       .  A
C1553      H1558   1.085       .  S
C1554      C1694   1.485       .  S
C1554      C1555   1.401       .  A
C1555      C1556   1.404       .  A
C1555      H1559   1.084       .  S
C1556      C1649   1.482       .  S
C1556      C1557   1.403       .  A
C1557      H1560   1.083       .  S
C1561      C1635   1.503       .  S
C1561      C1562   1.415       .  A
C1561      C1566   1.407       .  A
C1562      C1563   1.411       .  A
C1562      H1567   1.082       .  S
C1563      C2055   1.486       .  S
C1563      C1564   1.399       .  A
C1564      C1565   1.391       .  A
C1564      H1568   1.085       .  S
C1565      C1722   1.476       .  S
C1565      C1566   1.394       .  A
C1566      H1569   1.083       .  S
C1570      C1999   1.487       .  S
C1570      C1571   1.398       .  A
C1570      C1575   1.411       .  A
C1571      C1572   1.391       .  A
C1571      H1576   1.085       .  S
C1572      C1708   1.477       .  S
C1572      C1573   1.396       .  A
C1573      C1574   1.408       .  A
C1573      H1577   1.084       .  S
C1574      C1621   1.507       .  S
C1574      C1575   1.417       .  A
C1575      H1578   1.082       .  S
O1579     Ni1587   1.925       .  S
O1579      C1589   1.281       .  A
O1580     Ni1587   1.926   1_565  S
O1580      C2298   1.283       .  A
O1581     Ni1587   1.913       .  S
O1581      C1591   1.279       .  A
O1582     Ni1587   1.916   1_565  S
O1582      C2300   1.282       .  A
O1583     Ni1588   1.920       .  S
O1583      C1592   1.281       .  A
O1584     Ni1588   1.920       .  S
O1584      C2299   1.283       .  A
O1585     Ni1588   1.921       .  S
O1585      C1590   1.280       .  A
O1586     Ni1588   1.919       .  S
O1586      C2297   1.282       .  A
Ni1587    Ni2296   2.388   1_545  S
Ni1588    Ni2295   2.388       .  S
C1589      O2294   1.282       .  A
C1589      C1666   1.485       .  S
C1590      O2288   1.283       .  A
C1590      C1834   1.483       .  S
C1591      O2292   1.283       .  A
C1591      C1806   1.486       .  S
C1592      O2290   1.282       .  A
C1592      C1638   1.496       .  S
O1593     Ni1601   1.919       .  S
O1593      C1603   1.281       .  A
O1594     Ni1601   1.921   1_564  S
O1594      C2312   1.284       .  A
O1595     Ni1601   1.922   1_554  S
O1595      C1605   1.280       .  A
O1596     Ni1601   1.915   1_565  S
O1596      C2314   1.280       .  A
O1597     Ni1602   1.922       .  S
O1597      C1606   1.281       .  A
O1598     Ni1602   1.915   1_554  S
O1598      C2313   1.281       .  A
O1599     Ni1602   1.910   1_554  S
O1599      C1604   1.279       .  A
O1600     Ni1602   1.912       .  S
O1600      C2311   1.281       .  A
Ni1601    Ni2310   2.388   1_545  S
Ni1602    Ni2309   2.388       .  S
C1603      O2308   1.281       .  A
C1603      C1778   1.493       .  S
C1604      O2302   1.284       .  A
C1604      C1915   1.495       .  S
C1605      O2306   1.281       .  A
C1605      C1946   1.479       .  S
C1606      O2304   1.280       .  A
C1606      C1750   1.478       .  S
O1607     Ni1615   1.919       .  S
O1607      C1617   1.281       .  A
O1608     Ni1615   1.920       .  S
O1608      C1618   1.283       .  A
O1609     Ni1615   1.918       .  S
O1609      C1619   1.279       .  A
O1610     Ni1615   1.919       .  S
O1610      C1620   1.281       .  A
O1611     Ni1616   1.923       .  S
O1611      C1620   1.280       .  A
O1612     Ni1616   1.922       .  S
O1612      C1619   1.282       .  A
O1613     Ni1616   1.923       .  S
O1613      C1618   1.281       .  A
O1614     Ni1616   1.918       .  S
O1614      C1617   1.283       .  A
Ni1615    Ni1616   2.388       .  S
C1617      C1624   1.500       .  S
C1618      C1820   1.493       .  S
C1619      C1789   1.479       .  S
C1620      C1652   1.479       .  S
C1621      C1622   1.420       .  A
C1621      C1626   1.417       .  A
C1622      C1623   1.409       .  A
C1622      C1627   1.452       .  S
C1623      C1624   1.416       .  A
C1623      C1630   1.455       .  S
C1624      C1625   1.419       .  A
C1625      C1626   1.417       .  A
C1625      C1628   1.450       .  S
C1626      C1629   1.450       .  S
C1627      N1634   1.157       .  T
C1628      N1633   1.157       .  T
C1629      N1631   1.157       .  T
C1630      N1632   1.158       .  T
C1635      C1636   1.417       .  A
C1635      C1640   1.419       .  A
C1636      C1637   1.416       .  A
C1636      C1641   1.449       .  S
C1637      C1638   1.417       .  A
C1637      C1644   1.450       .  S
C1638      C1639   1.415       .  A
C1639      C1640   1.408       .  A
C1639      C1642   1.454       .  S
C1640      C1643   1.452       .  S
C1641      N1648   1.157       .  T
C1642      N2355   1.158       .  T
C1643      N1645   1.157       .  T
C1644      N1646   1.157       .  T
N1647      C2350   1.158       .  T
C1649      C1650   1.408       .  A
C1649      C1654   1.409       .  A
C1650      C1651   1.411       .  A
C1650      C1655   1.447       .  S
C1651      C1652   1.411       .  A
C1651      C1658   1.449       .  S
C1652      C1653   1.411       .  A
C1653      C1654   1.411       .  A
C1653      C1656   1.448       .  S
C1654      C1657   1.450       .  S
C1655      N1662   1.156       .  T
C1656      N1661   1.157       .  T
C1657      N1659   1.157       .  T
C1658      N1660   1.157       .  T
C1663      C1664   1.412       .  A
C1663      C1668   1.412       .  A
C1664      C1665   1.411       .  A
C1664      C1669   1.450       .  S
C1665      C1666   1.408       .  A
C1665      C2380   1.447       .  S
C1666      C1667   1.413       .  A
C1667      C1668   1.414       .  A
C1667      C1670   1.450       .  S
C1668      C1671   1.450       .  S
C1669      N1676   1.157       .  T
C1670      N1675   1.157       .  T
C1671      N1673   1.157       .  T
C1672      C2373   1.447       .  S
C1672      N1674   1.156       .  T
C1677      C1678   1.425       .  A
C1677      C1682   1.425       .  A
C1678      C1679   1.413       .  A
C1678      C1683   1.446       .  S
C1679      C1680   1.404       .  A
C1679      C1686   1.453       .  S
C1680      C1681   1.405       .  A
C1681      C1682   1.411       .  A
C1681      C1684   1.454       .  S
C1682      C1685   1.445       .  S
C1683      N1690   1.157       .  T
C1684      N1689   1.157       .  T
C1685      N2395   1.157       .  T
C1686      N1688   1.157       .  T
N1687      C2393   1.157       .  T
C1691      C1692   1.423       .  A
C1691      C1696   1.425       .  A
C1692      C1693   1.412       .  A
C1692      C1697   1.447       .  S
C1693      C1694   1.406       .  A
C1693      C1700   1.452       .  S
C1694      C1695   1.404       .  A
C1695      C1696   1.411       .  A
C1695      C1698   1.454       .  S
C1697      N1704   1.157       .  T
C1698      N1703   1.157       .  T
C1699      N1701   1.157       .  T
C1700      N1702   1.157       .  T
C1705      C1706   1.427       .  A
C1705      C1710   1.423       .  A
C1706      C1707   1.412       .  A
C1706      C1711   1.445       .  S
C1707      C1708   1.401       .  A
C1707      C1714   1.452       .  S
C1708      C1709   1.403       .  A
C1709      C1710   1.405       .  A
C1709      C1712   1.454       .  S
C1710      C1713   1.446       .  S
C1711      N1718   1.157       .  T
C1712      N1717   1.157       .  T
C1714      N1716   1.157       .  T
C1719      C1720   1.423       .  A
C1719      C1724   1.425       .  A
C1720      C1721   1.405       .  A
C1720      C1725   1.445       .  S
C1721      C1722   1.403       .  A
C1721      C1728   1.454       .  S
C1722      C1723   1.402       .  A
C1723      C1724   1.412       .  A
C1723      C1726   1.451       .  S
C1724      C2435   1.446       .  S
C1725      N1732   1.157       .  T
C1726      N1731   1.157       .  T
C1727      C2432   1.446       .  S
C1727      N1729   1.157   1_565  T
C1728      N1730   1.157       .  T
C1733      C1734   1.400       .  A
C1733      C1738   1.404       .  A
C1734      C1735   1.409       .  A
C1734      C1739   1.452       .  S
C1735      C1736   1.426       .  A
C1735      C2450   1.446       .  S
C1736      C1737   1.424       .  A
C1737      C1738   1.406       .  A
C1738      C1741   1.455       .  S
C1739      N1746   1.157       .  T
C1740      N1745   1.157       .  T
C1741      N1743   1.157       .  T
C1742      C2443   1.446       .  S
C1742      N1744   1.157       .  T
C1747      C1748   1.411       .  A
C1747      C1752   1.409       .  A
C1748      C1749   1.408       .  A
C1748      C1753   1.453       .  S
C1749      C1750   1.410       .  A
C1749      C1756   1.447       .  S
C1750      C1751   1.412       .  A
C1751      C1752   1.410       .  A
C1751      C1754   1.448       .  S
C1752      C1755   1.450       .  S
C1753      N1760   1.157       .  T
C1754      N2467   1.156       .  T
C1755      N1757   1.157       .  T
C1756      N1758   1.156   1_556  T
N1759      C2462   1.156   1_545  T
C1761      C1762   1.424       .  A
C1761      C1766   1.423       .  A
C1762      C1763   1.412       .  A
C1762      C1767   1.445       .  S
C1763      C1764   1.405       .  A
C1763      C1770   1.454       .  S
C1764      C1765   1.404       .  A
C1765      C1766   1.409       .  A
C1765      C1768   1.453       .  S
C1766      C1769   1.447       .  S
C1767      N1774   1.157   1_655  T
C1768      N1773   1.157       .  T
C1769      N1771   1.157       .  T
C1770      N1772   1.157       .  T
C1775      C1776   1.415       .  A
C1775      C1780   1.412       .  A
C1776      C1777   1.412       .  A
C1776      C1781   1.452       .  S
C1777      C1778   1.417       .  A
C1777      C1784   1.451       .  S
C1778      C1779   1.418       .  A
C1779      C1780   1.407       .  A
C1779      C1782   1.452   1_545  S
C1780      C1783   1.452       .  S
C1781      N1788   1.158       .  T
C1782      N2495   1.157       .  T
C1783      N1785   1.157   1_545  T
C1784      N1786   1.158       .  T
N1787      C2490   1.157       .  T
C1789      C1790   1.410       .  A
C1789      C1794   1.408       .  A
C1790      C1791   1.410       .  A
C1790      C1795   1.447       .  S
C1791      C1792   1.409       .  A
C1791      C1798   1.450       .  S
C1792      C1793   1.409       .  A
C1793      C1794   1.409       .  A
C1793      C1796   1.447       .  S
C1794      C1797   1.446       .  S
C1795      N1802   1.157       .  T
C1796      N1801   1.156       .  T
C1797      N1799   1.155       .  T
C1798      N1800   1.157       .  T
C1803      C1804   1.417       .  A
C1803      C1808   1.414       .  A
C1804      C1805   1.414       .  A
C1804      C1809   1.449       .  S
C1805      C1806   1.414       .  A
C1805      C1812   1.448       .  S
C1806      C1807   1.411       .  A
C1807      C1808   1.407       .  A
C1807      C1810   1.453       .  S
C1808      C1811   1.449       .  S
C1809      N1816   1.157       .  T
C1810      N1815   1.157       .  T
C1811      N1813   1.156       .  T
C1812      N1814   1.156       .  T
C1817      C1818   1.418       .  A
C1817      C1822   1.416       .  A
C1818      C1819   1.417       .  A
C1818      C1823   1.450       .  S
C1819      C1820   1.417       .  A
C1819      C1826   1.451       .  S
C1820      C1821   1.414       .  A
C1821      C1822   1.408       .  A
C1821      C1824   1.453       .  S
C1822      C1825   1.450       .  S
C1823      N1830   1.157       .  T
C1824      N1829   1.158       .  T
C1825      N1827   1.156       .  T
C1826      N1828   1.158       .  T
C1831      C1832   1.409       .  A
C1831      C1836   1.411       .  A
C1832      C1833   1.412       .  A
C1832      C1837   1.450       .  S
C1833      C1834   1.413       .  A
C1833      C1840   1.449       .  S
C1834      C1835   1.410       .  A
C1835      C1836   1.412       .  A
C1835      C1838   1.448       .  S
C1836      C1839   1.450       .  S
C1837      N1844   1.157       .  T
C1838      N2551   1.157       .  T
C1839      N1841   1.157       .  T
C1840      N1842   1.157       .  T
N1843      C2546   1.157       .  T
C1845      C1846   1.425       .  A
C1845      C1850   1.423       .  A
C1846      C1847   1.412       .  A
C1846      C1851   1.446       .  S
C1847      C1848   1.405       .  A
C1847      C1854   1.452       .  S
C1848      C1849   1.405       .  A
C1849      C1850   1.409       .  A
C1849      C1852   1.451       .  S
C1850      C2561   1.446       .  S
C1851      N1858   1.157   1_545  T
C1852      N1857   1.157       .  T
C1853      C2558   1.446       .  S
C1853      N1855   1.157       .  T
C1854      N1856   1.157       .  T
C1859      C1860   1.424       .  A
C1859      C1864   1.425       .  A
C1860      C1861   1.413       .  A
C1861      C1862   1.405       .  A
C1861      C1868   1.451       .  S
C1862      C1863   1.405       .  A
C1863      C1864   1.411       .  A
C1863      C1866   1.452       .  S
C1864      C1867   1.445       .  S
C1865      N1872   1.157       .  T
C1866      N1871   1.157       .  T
C1867      N1869   1.157       .  T
C1868      N1870   1.157       .  T
C1873      C1874   1.423       .  A
C1873      C1878   1.426       .  A
C1874      C1875   1.410       .  A
C1874      C1879   1.445       .  S
C1875      C1876   1.405       .  A
C1875      C1882   1.453       .  S
C1876      C1877   1.404       .  A
C1877      C1878   1.414       .  A
C1877      C1880   1.453       .  S
C1878      C1881   1.445       .  S
C1879      N1886   1.156       .  T
C1880      N1885   1.157       .  T
C1882      N1884   1.157       .  T
C1887      C1888   1.425       .  A
C1887      C1892   1.424       .  A
C1888      C1889   1.412       .  A
C1888      C1893   1.445       .  S
C1889      C1890   1.404       .  A
C1889      C1896   1.453       .  S
C1890      C1891   1.405       .  A
C1891      C1892   1.411       .  A
C1891      C1894   1.454       .  S
C1892      C1895   1.445       .  S
C1893      N1900   1.157       .  T
C1894      N1899   1.157       .  T
C1895      N1897   1.157       .  T
C1896      N1898   1.157       .  T
C1901      C1902   1.403       .  A
C1901      C1906   1.402       .  A
C1902      C1903   1.406       .  A
C1902      C1907   1.452       .  S
C1903      C1904   1.423       .  A
C1903      C1910   1.445       .  S
C1904      C1905   1.427       .  A
C1905      C1906   1.414       .  A
C1905      C1908   1.444       .  S
C1906      C1909   1.452       .  S
C1907      N1914   1.157       .  T
C1908      N1913   1.157       .  T
C1909      N1911   1.157       .  T
C1910      N1912   1.157       .  T
C1915      C1916   1.418       .  A
C1915      C1920   1.416       .  A
C1916      C1917   1.411       .  A
C1916      C1921   1.452       .  S
C1917      C1918   1.412       .  A
C1917      C1924   1.449       .  S
C1918      C1919   1.415       .  A
C1919      C1920   1.409       .  A
C1919      C1922   1.453       .  S
C1920      C1923   1.450       .  S
C1921      N1928   1.158       .  T
C1922      N1927   1.157       .  T
C1923      N2633   1.156       .  T
C1924      N1926   1.156       .  T
N1925      C2631   1.156       .  T
C1929      C1930   1.402       .  A
C1929      C1934   1.403       .  A
C1930      C1931   1.406       .  A
C1930      C1935   1.453       .  S
C1931      C1932   1.424       .  A
C1931      C1938   1.445       .  S
C1932      C1933   1.425       .  A
C1933      C1934   1.410       .  A
C1933      C1936   1.445       .  S
C1934      C1937   1.453       .  S
C1935      N1942   1.157       .  T
C1936      N1941   1.157       .  T
C1937      N1939   1.157       .  T
C1938      N1940   1.157       .  T
C1943      C1944   1.411       .  A
C1943      C1948   1.410       .  A
C1944      C1945   1.408       .  A
C1944      C1949   1.451       .  S
C1945      C1946   1.411       .  A
C1945      C1952   1.449       .  S
C1946      C1947   1.411       .  A
C1947      C1948   1.410       .  A
C1947      C1950   1.446       .  S
C1948      C1951   1.452       .  S
C1949      N1956   1.157       .  T
C1950      N1955   1.156   1_554  T
C1951      N1953   1.157       .  T
C1952      N2662   1.156   1_545  T
N1954      C2660   1.156       .  T
C1957      C1958   1.414       .  A
C1957      C1962   1.413       .  A
C1958      C1959   1.408       .  A
C1958      C1963   1.455       .  S
C1959      C1960   1.422       .  A
C1960      C1961   1.422       .  A
C1961      C1962   1.415       .  A
C1961      C1964   1.451       .  S
C1962      C1965   1.451       .  S
C1963      N1970   1.157       .  T
C1964      N1969   1.158       .  T
C1965      N1967   1.157       .  T
C1966      N1968   1.158       .  T
C1971      C1972   1.412       .  A
C1971      C1976   1.412       .  A
C1972      C1973   1.415       .  A
C1972      C1977   1.447       .  S
C1973      C1974   1.414       .  A
C1973      C1980   1.448       .  S
C1974      C1975   1.413       .  A
C1975      C1976   1.409       .  A
C1975      C1978   1.450       .  S
C1976      C1979   1.451       .  S
C1977      N1984   1.156       .  T
C1978      N1983   1.157       .  T
C1980      N1982   1.157       .  T
C1985      C1986   1.415       .  A
C1985      C1990   1.411       .  A
C1986      C1987   1.410       .  A
C1986      C1991   1.452       .  S
C1987      C1988   1.410       .  A
C1987      C1994   1.450       .  S
C1988      C1989   1.412       .  A
C1989      C1990   1.409       .  A
C1989      C1992   1.451       .  S
C1990      C1993   1.450       .  S
C1991      N1998   1.157       .  T
C1992      N1997   1.157       .  T
C1994      N1996   1.157       .  T
C1999      C2000   1.411       .  A
C1999      C2004   1.412       .  A
C2000      C2001   1.413       .  A
C2000      C2005   1.452       .  S
C2001      C2002   1.414       .  A
C2001      C2008   1.448       .  S
C2002      C2003   1.413       .  A
C2003      C2004   1.411       .  A
C2003      C2006   1.451   1_655  S
C2004      C2007   1.450       .  S
C2005      N2012   1.157       .  T
C2007      N2009   1.157       .  T
C2008      N2010   1.156       .  T
C2013      C2014   1.411       .  A
C2013      C2018   1.411       .  A
C2014      C2015   1.408       .  A
C2014      C2019   1.451       .  S
C2015      C2016   1.411       .  A
C2015      C2022   1.450       .  S
C2016      C2017   1.412       .  A
C2017      C2018   1.412       .  A
C2017      C2020   1.449       .  S
C2018      C2021   1.449       .  S
C2019      N2026   1.157       .  T
C2020      N2025   1.157       .  T
C2021      N2023   1.157       .  T
C2022      N2024   1.157   1_554  T
C2027      C2028   1.413       .  A
C2027      C2032   1.415       .  A
C2028      C2029   1.406       .  A
C2028      C2033   1.452       .  S
C2029      C2030   1.407       .  A
C2029      C2036   1.446       .  S
C2030      C2031   1.413       .  A
C2031      C2032   1.413       .  A
C2031      C2034   1.450       .  S
C2032      C2035   1.451       .  S
C2033      N2040   1.157       .  T
C2034      N2039   1.157       .  T
C2035      N2037   1.157       .  T
C2036      N2038   1.155       .  T
C2041      C2042   1.412       .  A
C2041      C2046   1.414       .  A
C2042      C2043   1.406       .  A
C2042      C2047   1.455       .  S
C2043      C2044   1.423       .  A
C2043      C2050   1.451       .  S
C2044      C2045   1.422       .  A
C2045      C2046   1.417       .  A
C2045      C2048   1.450       .  S
C2046      C2049   1.451       .  S
C2047      N2054   1.157       .  T
C2048      N2053   1.158       .  T
C2049      N2051   1.158       .  T
C2050      N2052   1.157       .  T
C2055      C2056   1.413       .  A
C2055      C2060   1.411       .  A
C2056      C2057   1.409       .  A
C2056      C2061   1.451       .  S
C2057      C2058   1.413       .  A
C2057      C2064   1.449       .  S
C2058      C2059   1.415       .  A
C2059      C2060   1.412       .  A
C2059      C2062   1.449       .  S
C2060      C2063   1.451       .  S
C2061      N2068   1.157       .  T
C2062      N2067   1.156       .  T
C2063      N2065   1.157       .  T
C2064      N2066   1.156       .  T
C2069      C2070   1.413       .  A
C2069      C2074   1.412       .  A
C2070      C2071   1.416       .  A
C2070      C2075   1.451       .  S
C2071      C2072   1.417       .  A
C2071      C2078   1.450       .  S
C2072      C2073   1.415       .  A
C2073      C2074   1.406       .  A
C2073      C2076   1.451       .  S
C2074      C2077   1.453       .  S
C2075      N2082   1.158       .  T
C2076      N2081   1.156       .  T
C2078      N2080   1.157       .  T
C2083      C2084   1.409       .  A
C2083      C2088   1.414       .  A
C2084      C2085   1.406       .  A
C2085      C2086   1.411       .  A
C2085      C2092   1.451       .  S
C2086      C2087   1.409       .  A
C2087      C2088   1.412       .  A
C2087      C2090   1.450       .  S
C2088      C2091   1.450       .  S
C2089      N2096   1.156       .  T
C2090      N2095   1.157       .  T
C2091      N2093   1.157       .  T
C2092      N2094   1.157       .  T
C2097      C2098   1.414       .  A
C2097      C2102   1.422       .  A
C2098      C2099   1.402       .  A
C2098      C2103   1.453       .  S
C2099      C2100   1.420       .  A
C2099      C2106   1.453       .  S
C2100      C2101   1.422       .  A
C2101      C2102   1.419       .  A
C2101      C2104   1.450       .  S
C2102      C2105   1.452       .  S
C2104      N2109   1.158       .  T
C2105      N2107   1.158       .  T
C2106      N2108   1.157       .  T
C2111      C2112   1.412       .  A
C2111      C2116   1.414       .  A
C2112      C2113   1.405       .  A
C2112      C2117   1.451       .  S
C2113      C2114   1.408       .  A
C2113      C2120   1.444       .  S
C2114      C2115   1.410       .  A
C2115      C2116   1.416       .  A
C2115      C2118   1.449       .  S
C2116      C2119   1.444       .  S
C2117      N2124   1.156       .  T
C2118      N2123   1.157       .  T
C2119      N2121   1.156       .  T
C2120      N2122   1.154       .  T
O2125     Ni2133   1.918   1_455  S
O2126     Ni2133   1.915       .  S
O2126      C2136   1.279       .  A
O2127     Ni2133   1.917       .  S
O2128     Ni2133   1.921       .  S
O2128      C2138   1.281       .  A
O2129     Ni2134   1.914       .  S
O2130     Ni2134   1.916       .  S
O2130      C2137   1.280       .  A
O2131     Ni2134   1.917       .  S
O2132     Ni2134   1.920       .  S
O2132      C2135   1.281       .  A
C2135      C2822   1.483       .  S
C2136      C2791   1.478       .  S
C2137      C2805   1.502       .  S
C2138      C2777   1.483       .  S
O2139     Ni2147   1.915       .  S
O2139      C2149   1.279       .  A
O2140     Ni2147   1.913   1_554  S
O2140      C2150   1.279       .  A
O2141     Ni2147   1.930   1_554  S
O2141      C2151   1.284       .  A
O2142     Ni2147   1.924       .  S
O2142      C2152   1.285       .  A
O2143     Ni2148   1.912   1_556  S
O2143      C2152   1.278       .  A
O2144     Ni2148   1.907       .  S
O2144      C2151   1.280       .  A
O2145     Ni2148   1.925       .  S
O2145      C2150   1.282       .  A
O2146     Ni2148   1.923   1_556  S
O2146      C2149   1.283       .  A
Ni2147    Ni2148   2.386   1_556  S
C2149      C2766   1.488       .  S
C2150      C2724   1.479       .  S
C2151      C2752   1.505       .  S
C2152      C2738   1.484       .  S
O2153     Ni2161   1.915   1_455  S
O2154     Ni2161   1.920   1_556  S
O2154      C2164   1.280       .  A
O2155     Ni2161   1.918   1_456  S
O2156     Ni2161   1.923       .  S
O2156      C2166   1.282       .  A
O2157     Ni2162   1.911       .  S
O2158     Ni2162   1.910   1_556  S
O2158      C2165   1.278       .  A
O2159     Ni2162   1.925   1_556  S
O2160     Ni2162   1.928       .  S
O2160      C2163   1.283       .  A
C2163      C2679   1.485       .  S
C2164      C2710   1.488       .  S
C2165      C2693   1.481       .  S
C2166      C2668   1.503       .  S
C2167      C2651   1.478       .  S
C2167      C2168   1.397       .  A
C2167      C2172   1.407       .  A
C2168      C2169   1.391       .  A
C2168      H2173   1.085       .  S
C2169      C2637   1.477       .  S
C2169      C2170   1.398       .  A
C2170      C2171   1.407       .  A
C2170      H2174   1.085       .  S
C2171      C2780   1.495       .  S
C2171      C2172   1.410       .  A
C2172      H2175   1.083       .  S
C2176      C2819   1.494       .  S
C2176      C2177   1.410       .  A
C2176      C2181   1.405       .  A
C2177      C2178   1.414       .  A
C2177      H2182   1.083       .  S
C2178      C2626   1.492       .  S
C2178      C2179   1.405       .  A
C2179      C2180   1.393       .  A
C2179      H2183   1.085       .  S
C2180      C2609   1.480       .  S
C2180      C2181   1.394       .  A
C2181      H2184   1.085       .  S
C2185      C2640   1.518       .  S
C2186      C2567   1.526       .  S
C2186      C2187   1.434       .  A
C2187      C2553   1.522       .  S
C2188      C2612   1.522       .  S
C2189      C2581   1.523       .  S
C2189      C2190   1.436       .  A
C2190      C2595   1.522       .  S
C2191      C2539   1.484       .  S
C2191      C2192   1.402       .  A
C2191      C2196   1.408       .  A
C2192      C2193   1.397       .  A
C2192      H2197   1.084       .  S
C2193      C2598   1.484       .  S
C2193      C2194   1.394       .  A
C2194      C2195   1.406       .  A
C2194      H2198   1.085       .  S
C2195      C2749   1.498       .  S
C2195      C2196   1.411       .  A
C2196      H2199   1.082       .  S
C2200      C2682   1.497       .  S
C2200      C2201   1.406       .  A
C2200      C2205   1.411       .  A
C2201      C2202   1.396       .  A
C2201      H2206   1.085       .  S
C2202      C2570   1.488       .  S
C2202      C2203   1.399       .  A
C2203      C2204   1.408       .  A
C2203      H2207   1.084       .  S
C2204      C2525   1.502       .  S
C2204      C2205   1.412       .  A
C2205      H2208   1.082       .  S
C2209      C2511   1.499       .  S
C2209      C2210   1.409       .  A
C2209      C2214   1.410       .  A
C2210      C2211   1.407       .  A
C2210      H2215   1.082       .  S
C2211      C2721   1.486       .  S
C2211      C2212   1.400       .  A
C2212      C2213   1.394       .  A
C2212      H2216   1.085       .  S
C2213      C2556   1.484       .  S
C2213      C2214   1.400       .  A
C2214      H2217   1.084       .  S
C2218      C2665   1.497       .  S
C2218      C2219   1.407       .  A
C2218      C2223   1.411       .  A
C2219      C2220   1.396       .  A
C2219      H2224   1.084       .  S
C2220      C2584   1.486       .  S
C2220      C2221   1.397       .  A
C2221      C2222   1.403       .  A
C2221      H2225   1.085       .  S
C2222      C2500   1.482       .  S
C2222      C2223   1.406       .  A
C2223      H2226   1.082       .  S
C2227      C2483   1.492       .  S
C2227      C2228   1.407       .  A
C2227      C2232   1.407       .  A
C2228      C2229   1.398       .  A
C2228      H2233   1.084       .  S
C2229      C2472   1.480       .  S
C2229      C2230   1.395       .  A
C2230      C2231   1.400       .  A
C2230      H2234   1.085       .  S
C2231      C2794   1.479       .  S
C2231      C2232   1.402       .  A
C2232      H2235   1.083       .  S
C2236      C2808   1.511       .  S
C2236      C2237   1.418       .  A
C2236      C2241   1.411       .  A
C2237      C2238   1.408       .  A
C2237      H2242   1.077       .  S
C2238      C2455   1.478       .  S
C2238      C2239   1.393       .  A
C2239      C2240   1.385       .  A
C2239      H2243   1.086       .  S
C2240      C2441   1.473       .  S
C2240      C2241   1.394       .  A
C2241      H2244   1.084       .  S
C2245      C2469   1.517       .  S
C2246      C2427   1.519       .  S
C2246      C2247   1.429       .  A
C2247      C2413   1.523       .  S
C2248      C2444   1.517       .  S
C2249      C2385   1.524       .  S
C2249      C2250   1.438       .  A
C2250      C2399   1.521       .  S
C2251      C2371   1.488       .  S
C2251      C2252   1.407       .  A
C2251      C2256   1.406       .  A
C2252      C2253   1.406       .  A
C2252      H2257   1.083       .  S
C2253      C2735   1.486       .  S
C2253      C2254   1.400       .  A
C2254      C2255   1.396       .  A
C2254      H2258   1.085       .  S
C2255      C2388   1.485       .  S
C2255      C2256   1.402       .  A
C2256      H2259   1.084       .  S
C2260      C2696   1.482       .  S
C2260      C2261   1.401       .  A
C2260      C2265   1.404       .  A
C2261      C2262   1.398       .  A
C2261      H2266   1.085       .  S
C2262      C2402   1.485       .  S
C2262      C2263   1.401       .  A
C2263      C2264   1.404       .  A
C2263      H2267   1.084       .  S
C2264      C2357   1.482       .  S
C2264      C2265   1.403       .  A
C2265      H2268   1.083       .  S
C2269      C2343   1.503       .  S
C2269      C2270   1.415       .  A
C2269      C2274   1.407       .  A
C2270      C2271   1.411       .  A
C2270      H2275   1.082       .  S
C2271      C2763   1.486       .  S
C2271      C2272   1.399       .  A
C2272      C2273   1.391       .  A
C2272      H2276   1.085       .  S
C2273      C2430   1.476       .  S
C2273      C2274   1.394       .  A
C2274      H2277   1.083       .  S
C2278      C2707   1.487       .  S
C2278      C2279   1.398       .  A
C2278      C2283   1.411       .  A
C2279      C2280   1.391       .  A
C2279      H2284   1.085       .  S
C2280      C2416   1.477       .  S
C2280      C2281   1.396       .  A
C2281      C2282   1.408       .  A
C2281      H2285   1.084       .  S
C2282      C2329   1.507       .  S
C2282      C2283   1.417       .  A
C2283      H2286   1.082       .  S
O2287     Ni2295   1.925       .  S
O2287      C2297   1.281       .  A
O2288     Ni2295   1.926       .  S
O2289     Ni2295   1.913       .  S
O2289      C2299   1.279       .  A
O2290     Ni2295   1.916       .  S
O2291     Ni2296   1.920       .  S
O2291      C2300   1.281       .  A
O2292     Ni2296   1.920   1_545  S
O2293     Ni2296   1.921       .  S
O2293      C2298   1.280       .  A
O2294     Ni2296   1.919   1_545  S
C2297      C2374   1.485       .  S
C2298      C2542   1.483       .  S
C2299      C2514   1.486       .  S
C2300      C2346   1.496       .  S
O2301     Ni2309   1.919       .  S
O2301      C2311   1.281       .  A
O2302     Ni2309   1.921   1_554  S
O2303     Ni2309   1.922   1_554  S
O2303      C2313   1.280       .  A
O2304     Ni2309   1.915       .  S
O2305     Ni2310   1.922       .  S
O2305      C2314   1.281       .  A
O2306     Ni2310   1.915   1_544  S
O2307     Ni2310   1.910   1_554  S
O2307      C2312   1.279       .  A
O2308     Ni2310   1.912   1_545  S
C2311      C2486   1.493       .  S
C2312      C2623   1.495       .  S
C2313      C2654   1.479       .  S
C2314      C2458   1.478       .  S
O2315     Ni2323   1.919       .  S
O2315      C2325   1.281       .  A
O2316     Ni2323   1.920       .  S
O2316      C2326   1.283       .  A
O2317     Ni2323   1.918       .  S
O2317      C2327   1.279       .  A
O2318     Ni2323   1.919       .  S
O2318      C2328   1.281       .  A
O2319     Ni2324   1.923       .  S
O2319      C2328   1.280       .  A
O2320     Ni2324   1.922       .  S
O2320      C2327   1.282       .  A
O2321     Ni2324   1.923       .  S
O2321      C2326   1.281       .  A
O2322     Ni2324   1.918       .  S
O2322      C2325   1.283       .  A
Ni2323    Ni2324   2.388       .  S
C2325      C2332   1.500       .  S
C2326      C2528   1.493       .  S
C2327      C2497   1.479       .  S
C2328      C2360   1.479       .  S
C2329      C2330   1.420       .  A
C2329      C2334   1.417       .  A
C2330      C2331   1.409       .  A
C2330      C2335   1.452       .  S
C2331      C2332   1.416       .  A
C2331      C2338   1.455       .  S
C2332      C2333   1.419       .  A
C2333      C2334   1.417       .  A
C2333      C2336   1.450       .  S
C2334      C2337   1.450       .  S
C2335      N2342   1.157       .  T
C2336      N2341   1.157       .  T
C2337      N2339   1.157       .  T
C2338      N2340   1.158       .  T
C2343      C2344   1.417       .  A
C2343      C2348   1.419       .  A
C2344      C2345   1.416       .  A
C2344      C2349   1.449       .  S
C2345      C2346   1.417       .  A
C2345      C2352   1.450       .  S
C2346      C2347   1.415       .  A
C2347      C2348   1.408       .  A
C2347      C2350   1.454       .  S
C2348      C2351   1.452       .  S
C2349      N2356   1.157       .  T
C2351      N2353   1.157       .  T
C2352      N2354   1.157       .  T
C2357      C2358   1.408       .  A
C2357      C2362   1.409       .  A
C2358      C2359   1.411       .  A
C2358      C2363   1.447       .  S
C2359      C2360   1.411       .  A
C2359      C2366   1.449       .  S
C2360      C2361   1.411       .  A
C2361      C2362   1.411       .  A
C2361      C2364   1.448       .  S
C2362      C2365   1.450       .  S
C2363      N2370   1.156       .  T
C2364      N2369   1.157       .  T
C2365      N2367   1.157       .  T
C2366      N2368   1.157       .  T
C2371      C2372   1.412       .  A
C2371      C2376   1.412       .  A
C2372      C2373   1.411       .  A
C2372      C2377   1.450       .  S
C2373      C2374   1.408       .  A
C2374      C2375   1.413       .  A
C2375      C2376   1.414       .  A
C2375      C2378   1.450       .  S
C2376      C2379   1.450       .  S
C2377      N2384   1.157       .  T
C2378      N2383   1.157       .  T
C2379      N2381   1.157       .  T
C2380      N2382   1.156   1_545  T
C2385      C2386   1.425       .  A
C2385      C2390   1.425       .  A
C2386      C2387   1.413       .  A
C2386      C2391   1.446       .  S
C2387      C2388   1.404       .  A
C2387      C2394   1.453       .  S
C2388      C2389   1.405       .  A
C2389      C2390   1.411       .  A
C2389      C2392   1.454       .  S
C2390      C2393   1.445       .  S
C2391      N2398   1.157       .  T
C2392      N2397   1.157       .  T
C2394      N2396   1.157       .  T
C2399      C2400   1.423       .  A
C2399      C2404   1.425       .  A
C2400      C2401   1.412       .  A
C2400      C2405   1.447       .  S
C2401      C2402   1.406       .  A
C2401      C2408   1.452       .  S
C2402      C2403   1.404       .  A
C2403      C2404   1.411       .  A
C2403      C2406   1.454       .  S
C2405      N2412   1.157       .  T
C2406      N2411   1.157       .  T
C2407      N2409   1.157       .  T
C2408      N2410   1.157       .  T
C2413      C2414   1.427       .  A
C2413      C2418   1.423       .  A
C2414      C2415   1.412       .  A
C2414      C2419   1.445       .  S
C2415      C2416   1.401       .  A
C2415      C2422   1.452       .  S
C2416      C2417   1.404       .  A
C2417      C2418   1.405       .  A
C2417      C2420   1.453       .  S
C2418      C2421   1.446       .  S
C2419      N2426   1.157       .  T
C2420      N2425   1.157       .  T
C2422      N2424   1.157       .  T
C2427      C2428   1.423       .  A
C2427      C2432   1.425       .  A
C2428      C2429   1.405       .  A
C2428      C2433   1.445       .  S
C2429      C2430   1.403       .  A
C2429      C2436   1.454       .  S
C2430      C2431   1.402       .  A
C2431      C2432   1.412       .  A
C2431      C2434   1.451       .  S
C2433      N2440   1.157       .  T
C2434      N2439   1.157       .  T
C2435      N2437   1.157       .  T
C2436      N2438   1.157       .  T
C2441      C2442   1.400       .  A
C2441      C2446   1.404       .  A
C2442      C2443   1.409       .  A
C2442      C2447   1.452       .  S
C2443      C2444   1.426       .  A
C2444      C2445   1.424       .  A
C2445      C2446   1.406       .  A
C2446      C2449   1.455       .  S
C2447      N2454   1.157       .  T
C2448      N2453   1.157       .  T
C2449      N2451   1.157       .  T
C2450      N2452   1.157       .  T
C2455      C2456   1.411       .  A
C2455      C2460   1.409       .  A
C2456      C2457   1.408       .  A
C2456      C2461   1.453       .  S
C2457      C2458   1.410       .  A
C2457      C2464   1.447       .  S
C2458      C2459   1.412       .  A
C2459      C2460   1.410       .  A
C2459      C2462   1.448       .  S
C2460      C2463   1.450       .  S
C2461      N2468   1.157       .  T
C2463      N2465   1.157       .  T
C2464      N2466   1.156   1_556  T
C2469      C2470   1.424       .  A
C2469      C2474   1.423       .  A
C2470      C2471   1.412       .  A
C2470      C2475   1.445       .  S
C2471      C2472   1.405       .  A
C2471      C2478   1.454       .  S
C2472      C2473   1.404       .  A
C2473      C2474   1.409       .  A
C2473      C2476   1.453       .  S
C2474      C2477   1.447       .  S
C2475      N2482   1.157   1_655  T
C2476      N2481   1.157       .  T
C2477      N2479   1.157       .  T
C2478      N2480   1.157       .  T
C2483      C2484   1.415       .  A
C2483      C2488   1.412       .  A
C2484      C2485   1.412       .  A
C2484      C2489   1.452       .  S
C2485      C2486   1.417       .  A
C2485      C2492   1.451       .  S
C2486      C2487   1.418       .  A
C2487      C2488   1.407       .  A
C2487      C2490   1.452       .  S
C2488      C2491   1.452       .  S
C2489      N2496   1.158       .  T
C2491      N2493   1.157       .  T
C2492      N2494   1.158       .  T
C2497      C2498   1.410       .  A
C2497      C2502   1.408       .  A
C2498      C2499   1.410       .  A
C2498      C2503   1.447       .  S
C2499      C2500   1.409       .  A
C2499      C2506   1.450       .  S
C2500      C2501   1.409       .  A
C2501      C2502   1.409       .  A
C2501      C2504   1.447       .  S
C2502      C2505   1.446       .  S
C2503      N2510   1.157       .  T
C2504      N2509   1.156       .  T
C2505      N2507   1.155       .  T
C2506      N2508   1.157       .  T
C2511      C2512   1.417       .  A
C2511      C2516   1.414       .  A
C2512      C2513   1.414       .  A
C2512      C2517   1.449       .  S
C2513      C2514   1.414       .  A
C2513      C2520   1.448       .  S
C2514      C2515   1.411       .  A
C2515      C2516   1.407       .  A
C2515      C2518   1.453       .  S
C2516      C2519   1.449       .  S
C2517      N2524   1.157       .  T
C2518      N2523   1.157       .  T
C2519      N2521   1.156       .  T
C2520      N2522   1.156       .  T
C2525      C2526   1.418       .  A
C2525      C2530   1.416       .  A
C2526      C2527   1.417       .  A
C2526      C2531   1.450       .  S
C2527      C2528   1.417       .  A
C2527      C2534   1.451       .  S
C2528      C2529   1.414       .  A
C2529      C2530   1.408       .  A
C2529      C2532   1.453       .  S
C2530      C2533   1.450       .  S
C2531      N2538   1.157       .  T
C2532      N2537   1.158       .  T
C2533      N2535   1.156       .  T
C2534      N2536   1.158       .  T
C2539      C2540   1.409       .  A
C2539      C2544   1.411       .  A
C2540      C2541   1.412       .  A
C2540      C2545   1.450       .  S
C2541      C2542   1.413       .  A
C2541      C2548   1.449       .  S
C2542      C2543   1.410       .  A
C2543      C2544   1.412       .  A
C2543      C2546   1.448       .  S
C2544      C2547   1.450       .  S
C2545      N2552   1.157       .  T
C2547      N2549   1.157       .  T
C2548      N2550   1.157       .  T
C2553      C2554   1.425       .  A
C2553      C2558   1.423       .  A
C2554      C2555   1.412       .  A
C2554      C2559   1.446       .  S
C2555      C2556   1.405       .  A
C2555      C2562   1.452       .  S
C2556      C2557   1.405       .  A
C2557      C2558   1.409       .  A
C2557      C2560   1.451       .  S
C2559      N2566   1.157       .  T
C2560      N2565   1.157       .  T
C2561      N2563   1.157       .  T
C2562      N2564   1.157       .  T
C2567      C2568   1.424       .  A
C2567      C2572   1.425       .  A
C2568      C2569   1.413       .  A
C2569      C2570   1.405       .  A
C2569      C2576   1.451       .  S
C2570      C2571   1.405       .  A
C2571      C2572   1.411       .  A
C2571      C2574   1.452       .  S
C2572      C2575   1.445       .  S
C2573      N2580   1.157       .  T
C2574      N2579   1.157       .  T
C2575      N2577   1.157       .  T
C2576      N2578   1.157       .  T
C2581      C2582   1.423       .  A
C2581      C2586   1.426       .  A
C2582      C2583   1.410       .  A
C2582      C2587   1.445       .  S
C2583      C2584   1.405       .  A
C2583      C2590   1.453       .  S
C2584      C2585   1.404       .  A
C2585      C2586   1.414       .  A
C2585      C2588   1.453       .  S
C2586      C2589   1.445       .  S
C2587      N2594   1.156       .  T
C2588      N2593   1.157       .  T
C2590      N2592   1.157       .  T
C2595      C2596   1.425       .  A
C2595      C2600   1.424       .  A
C2596      C2597   1.412       .  A
C2596      C2601   1.445       .  S
C2597      C2598   1.404       .  A
C2597      C2604   1.453       .  S
C2598      C2599   1.405       .  A
C2599      C2600   1.411       .  A
C2599      C2602   1.454       .  S
C2600      C2603   1.445       .  S
C2601      N2608   1.157       .  T
C2602      N2607   1.157       .  T
C2603      N2605   1.157       .  T
C2604      N2606   1.157       .  T
C2609      C2610   1.403       .  A
C2609      C2614   1.402       .  A
C2610      C2611   1.406       .  A
C2610      C2615   1.452       .  S
C2611      C2612   1.423       .  A
C2611      C2618   1.445       .  S
C2612      C2613   1.427       .  A
C2613      C2614   1.414       .  A
C2613      C2616   1.444       .  S
C2614      C2617   1.452       .  S
C2615      N2622   1.157       .  T
C2616      N2621   1.157       .  T
C2617      N2619   1.157       .  T
C2618      N2620   1.157       .  T
C2623      C2624   1.418       .  A
C2623      C2628   1.416       .  A
C2624      C2625   1.411       .  A
C2624      C2629   1.452       .  S
C2625      C2626   1.412       .  A
C2625      C2632   1.449       .  S
C2626      C2627   1.415       .  A
C2627      C2628   1.409       .  A
C2627      C2630   1.453       .  S
C2628      C2631   1.450   1_565  S
C2629      N2636   1.158       .  T
C2630      N2635   1.157       .  T
C2632      N2634   1.156       .  T
C2637      C2638   1.402       .  A
C2637      C2642   1.403       .  A
C2638      C2639   1.406       .  A
C2638      C2643   1.453       .  S
C2639      C2640   1.424       .  A
C2639      C2646   1.445       .  S
C2640      C2641   1.425       .  A
C2641      C2642   1.410       .  A
C2641      C2644   1.445       .  S
C2642      C2645   1.453       .  S
C2643      N2650   1.157       .  T
C2644      N2649   1.157       .  T
C2645      N2647   1.157       .  T
C2646      N2648   1.157       .  T
C2651      C2652   1.411       .  A
C2651      C2656   1.410       .  A
C2652      C2653   1.408       .  A
C2652      C2657   1.451       .  S
C2653      C2654   1.411       .  A
C2653      C2660   1.449       .  S
C2654      C2655   1.411       .  A
C2655      C2656   1.410       .  A
C2655      C2658   1.446       .  S
C2656      C2659   1.452       .  S
C2657      N2664   1.157       .  T
C2658      N2663   1.156   1_554  T
C2659      N2661   1.157       .  T
C2665      C2666   1.414       .  A
C2665      C2670   1.413       .  A
C2666      C2667   1.408       .  A
C2666      C2671   1.455       .  S
C2667      C2668   1.422       .  A
C2668      C2669   1.422       .  A
C2669      C2670   1.415       .  A
C2669      C2672   1.451       .  S
C2670      C2673   1.451       .  S
C2671      N2678   1.157       .  T
C2672      N2677   1.158       .  T
C2673      N2675   1.157       .  T
C2674      N2676   1.158       .  T
C2679      C2680   1.412       .  A
C2679      C2684   1.412       .  A
C2680      C2681   1.415       .  A
C2680      C2685   1.447       .  S
C2681      C2682   1.414       .  A
C2681      C2688   1.448       .  S
C2682      C2683   1.413       .  A
C2683      C2684   1.409       .  A
C2683      C2686   1.450       .  S
C2684      C2687   1.451       .  S
C2685      N2692   1.156       .  T
C2686      N2691   1.157       .  T
C2688      N2690   1.157       .  T
C2693      C2694   1.415       .  A
C2693      C2698   1.411       .  A
C2694      C2695   1.410       .  A
C2694      C2699   1.452       .  S
C2695      C2696   1.410       .  A
C2695      C2702   1.450       .  S
C2696      C2697   1.412       .  A
C2697      C2698   1.409       .  A
C2697      C2700   1.451       .  S
C2698      C2701   1.450       .  S
C2699      N2706   1.157       .  T
C2700      N2705   1.157       .  T
C2702      N2704   1.157       .  T
C2707      C2708   1.411       .  A
C2707      C2712   1.412       .  A
C2708      C2709   1.413       .  A
C2708      C2713   1.452       .  S
C2709      C2710   1.414       .  A
C2709      C2716   1.448       .  S
C2710      C2711   1.413       .  A
C2711      C2712   1.411       .  A
C2711      C2714   1.451   1_655  S
C2712      C2715   1.450       .  S
C2713      N2720   1.157       .  T
C2715      N2717   1.157       .  T
C2716      N2718   1.156       .  T
C2721      C2722   1.411       .  A
C2721      C2726   1.411       .  A
C2722      C2723   1.408       .  A
C2722      C2727   1.451       .  S
C2723      C2724   1.411       .  A
C2723      C2730   1.450       .  S
C2724      C2725   1.412       .  A
C2725      C2726   1.412       .  A
C2725      C2728   1.449       .  S
C2726      C2729   1.449       .  S
C2727      N2734   1.157       .  T
C2728      N2733   1.157       .  T
C2729      N2731   1.157       .  T
C2730      N2732   1.157   1_554  T
C2735      C2736   1.413       .  A
C2735      C2740   1.415       .  A
C2736      C2737   1.406       .  A
C2736      C2741   1.452       .  S
C2737      C2738   1.407       .  A
C2737      C2744   1.446       .  S
C2738      C2739   1.413       .  A
C2739      C2740   1.413       .  A
C2739      C2742   1.450       .  S
C2740      C2743   1.451       .  S
C2741      N2748   1.157       .  T
C2742      N2747   1.157       .  T
C2743      N2745   1.157       .  T
C2744      N2746   1.155       .  T
C2749      C2750   1.412       .  A
C2749      C2754   1.414       .  A
C2750      C2751   1.406       .  A
C2750      C2755   1.455       .  S
C2751      C2752   1.423       .  A
C2751      C2758   1.451       .  S
C2752      C2753   1.422       .  A
C2753      C2754   1.417       .  A
C2753      C2756   1.450       .  S
C2754      C2757   1.451       .  S
C2755      N2762   1.157       .  T
C2756      N2761   1.158       .  T
C2757      N2759   1.158       .  T
C2758      N2760   1.157       .  T
C2763      C2764   1.413       .  A
C2763      C2768   1.411       .  A
C2764      C2765   1.409       .  A
C2764      C2769   1.451       .  S
C2765      C2766   1.413       .  A
C2765      C2772   1.449       .  S
C2766      C2767   1.415       .  A
C2767      C2768   1.412       .  A
C2767      C2770   1.449       .  S
C2768      C2771   1.451       .  S
C2769      N2776   1.157       .  T
C2770      N2775   1.156       .  T
C2771      N2773   1.157       .  T
C2772      N2774   1.156       .  T
C2777      C2778   1.413       .  A
C2777      C2782   1.412       .  A
C2778      C2779   1.416       .  A
C2778      C2783   1.451       .  S
C2779      C2780   1.417       .  A
C2779      C2786   1.450       .  S
C2780      C2781   1.415       .  A
C2781      C2782   1.406       .  A
C2781      C2784   1.451       .  S
C2782      C2785   1.453       .  S
C2783      N2790   1.158       .  T
C2784      N2789   1.156       .  T
C2786      N2788   1.157       .  T
C2791      C2792   1.409       .  A
C2791      C2796   1.414       .  A
C2792      C2793   1.406       .  A
C2793      C2794   1.411       .  A
C2793      C2800   1.451       .  S
C2794      C2795   1.409       .  A
C2795      C2796   1.412       .  A
C2795      C2798   1.450       .  S
C2796      C2799   1.450       .  S
C2797      N2804   1.156       .  T
C2798      N2803   1.157       .  T
C2799      N2801   1.157       .  T
C2800      N2802   1.157       .  T
C2805      C2806   1.414       .  A
C2805      C2810   1.422       .  A
C2806      C2807   1.402       .  A
C2806      C2811   1.453       .  S
C2807      C2808   1.420       .  A
C2807      C2814   1.453       .  S
C2808      C2809   1.422       .  A
C2809      C2810   1.419       .  A
C2809      C2812   1.451       .  S
C2810      C2813   1.452       .  S
C2812      N2817   1.158       .  T
C2813      N2815   1.158       .  T
C2814      N2816   1.157       .  T
C2819      C2820   1.412       .  A
C2819      C2824   1.414       .  A
C2820      C2821   1.405       .  A
C2820      C2825   1.451       .  S
C2821      C2822   1.408       .  A
C2821      C2828   1.444       .  S
C2822      C2823   1.410       .  A
C2823      C2824   1.416       .  A
C2823      C2826   1.449       .  S
C2824      C2827   1.444       .  S
C2825      N2832   1.156       .  T
C2826      N2831   1.157       .  T
C2827      N2829   1.156       .  T
C2828      N2830   1.154       .  T
