geometry optimzed in LAMMPS
_audit_creation_date              2020-11-30 
_audit_creation_method            'lammps2cif' 
_symmetry_space_group_name_H-M    'P1' 
_symmetry_Int_Tables_number       1 
_symmetry_cell_setting            triclinic 
loop_ 
_symmetry_equiv_pos_as_xyz 
  x,y,z 
_cell_length_a                    22.99974319 
_cell_length_b                    23.001631232557838 
_cell_length_c                    51.489309742640465 
_cell_angle_alpha                 89.99975528086004 
_cell_angle_beta                  89.99947384877437 
_cell_angle_gamma                 89.99408535266527 
loop_ 
_atom_site_label 
_atom_site_type_symbol 
_atom_site_fract_x 
_atom_site_fract_y 
_atom_site_fract_z 
_atom_site_charge 
C1          C  0.05221784  0.00613903  0.10271801     0.07400
C2          C  0.05192522  0.51043526  0.07593816     0.07400
C3          C  0.50005037  0.49997287  0.06278018    -0.13100
C4          C  0.44833686  0.51126829  0.07618191     0.07400
C5          C  0.44835287  0.00998729  0.10273421     0.07400
C6          C  0.00005126  0.99974854  0.11605656    -0.13100
H7          H  0.50003433  0.00027902  0.13716312     0.09500
H8          H  0.00006015  0.49991416  0.04145884     0.09500
C9          C  0.19759851  0.52942799  0.00407909     0.07400
C10         C  0.19759790  0.52942455  0.03150715     0.07400
C11         C  0.25037552  0.53071886  0.04491332    -0.13100
C12         C  0.30318494  0.53074093  0.03151287     0.07400
C13         C  0.30318551  0.53074411  0.00407342     0.07400
C14         C  0.25037668  0.53072541  0.99067297    -0.13100
H15         H  0.25037184  0.52995042  0.96958354     0.09500
H16         H  0.25036981  0.52993884  0.06600271     0.09500
O17         O  0.31506565  0.45872392  0.22240393    -0.67800
O18         O  0.18915091  0.46856053  0.16776131    -0.68800
O19         O  0.30971671  0.46863484  0.16759509    -0.57400
O20         O  0.18439244  0.45873897  0.22261166    -0.65800
O21         O  0.18438301  0.05095425  0.22433811    -0.65300
O22         O  0.31008893  0.05949893  0.16957305    -0.56600
O23         O  0.18973448  0.05802951  0.16938102    -0.69100
O24         O  0.31528803  0.05176843  0.22445526    -0.67900
Cu25       Cu  0.24956508  0.46032015  0.19548941     1.04600
Cu26       Cu  0.24983493  0.05832670  0.19755962     1.04300
C27         C  0.33936737  0.00292736  0.22980198     0.98400
C28         C  0.17374440  0.01070176  0.15861606     0.97600
C29         C  0.32702278  0.01266120  0.15871761     0.89700
C30         C  0.16081919  0.00192278  0.22971925     0.96000
C31         C  0.05168012  0.51054926  0.93224485     0.07400
C32         C  0.05192729  0.51044990  0.95964760     0.07400
C33         C  0.00004501  0.49998261  0.97306619    -0.13100
C34         C  0.44833974  0.51127995  0.95940404     0.07400
C35         C  0.44844072  0.51097613  0.93199489     0.07400
C36         C  0.00000015  0.50014019  0.91896120    -0.13100
H37         H  0.99998224  0.50019445  0.89784952     0.09500
H38         H  0.00006184  0.49992286  0.99412695     0.09500
O39         O  0.18440236  0.45873701  0.81297698    -0.67800
O40         O  0.30972427  0.46864556  0.86799319    -0.68800
O41         O  0.18915829  0.46857042  0.86782696    -0.57400
O42         O  0.31507579  0.45872271  0.81318476    -0.65800
O43         O  0.31529716  0.05176399  0.81113024    -0.65300
O44         O  0.18974036  0.05803103  0.86620396    -0.56600
O45         O  0.31009495  0.05950081  0.86601238    -0.69100
O46         O  0.18439197  0.05094927  0.81124703    -0.67900
Cu47       Cu  0.24957388  0.46032445  0.84009923     1.04600
Cu48       Cu  0.24984246  0.05832515  0.83802556     1.04300
C49         C  0.16055768  0.50557855  0.80471883     0.98400
C50         C  0.32653655  0.51836445  0.87601514     0.97600
C51         C  0.17246626  0.51827251  0.87590368     0.89700
C52         C  0.33903993  0.50555846  0.80500751     0.96000
O53         O  0.43506857  0.30944474  0.66902954    -0.67800
O54         O  0.44686965  0.18408182  0.72391834    -0.68800
O55         O  0.44602577  0.31492530  0.72377409    -0.57400
O56         O  0.43589152  0.18892125  0.66914107    -0.65800
O57         O  0.06381445  0.18856326  0.66847417    -0.65300
O58         O  0.05406568  0.31462705  0.72316455    -0.56600
O59         O  0.05308659  0.18371747  0.72332169    -0.69100
O60         O  0.06524878  0.30907530  0.66846557    -0.67900
Cu61       Cu  0.43771005  0.24930268  0.69712787     1.04600
Cu62       Cu  0.06227766  0.24891802  0.69651326     1.04300
C63         C  0.01902770  0.32631643  0.65717848     0.98400
C64         C  0.00370794  0.16026944  0.72815677     0.97600
C65         C  0.00495506  0.33885309  0.72784329     0.89700
C66         C  0.01716823  0.17256714  0.65714552     0.96000
C67         C  0.01172510  0.05168632  0.57396368     0.07400
C68         C  0.01095080  0.05145687  0.60128916     0.07400
C69         C  0.00013370  0.00003132  0.61459337    -0.13100
C70         C  0.01339827  0.44917616  0.60194699     0.07400
C71         C  0.01481644  0.44927440  0.57460501     0.07400
C72         C  0.00040995  0.00000462  0.56049942    -0.13100
H73         H  0.00051106  0.99999362  0.53952426     0.09500
H74         H  0.00002714  0.00003915  0.63570475     0.09500
C75         C  0.04059817  0.19859068  0.50410813     0.07400
C76         C  0.04059367  0.19858999  0.53147687     0.07400
C77         C  0.04405774  0.25121045  0.54494011    -0.13100
C78         C  0.04505054  0.30397877  0.53149282     0.07400
C79         C  0.04505429  0.30397949  0.50409290     0.07400
C80         C  0.04406588  0.25121177  0.49064531    -0.13100
H81         H  0.04274769  0.25122428  0.46956678     0.09300
H82         H  0.04273329  0.25122204  0.56601856     0.09500
C83         C  0.00004338  0.50005383  0.76592651     0.02700
C84         C  0.01096778  0.05145677  0.43429553     0.07400
C85         C  0.01174237  0.05168679  0.46162102     0.07400
C86         C  0.99979583  0.49999396  0.47443122    -0.13100
C87         C  0.01482813  0.44927693  0.46098027     0.07400
C88         C  0.01341209  0.44917870  0.43363828     0.07400
C89         C  0.99971383  0.49998068  0.42032007    -0.13100
H90         H  0.99969334  0.49997994  0.39921153     0.09500
H91         H  0.99983415  0.50000162  0.49544452     0.09500
O92         O  0.06525235  0.30907887  0.36711780    -0.67800
O93         O  0.05307818  0.18372462  0.31226129    -0.68800
O94         O  0.05405715  0.31463399  0.31241938    -0.57400
O95         O  0.06381818  0.18856663  0.36710827    -0.65800
O96         O  0.43588444  0.18892584  0.36644519    -0.65300
O97         O  0.44601621  0.31493157  0.31181213    -0.56600
O98         O  0.44686106  0.18408830  0.31166770    -0.69100
O99         O  0.43505972  0.30944897  0.36655670    -0.67900
Cu100      Cu  0.06227510  0.24892334  0.33906977     1.04600
Cu101      Cu  0.43770153  0.24930805  0.33845835     1.04300
C102        C  0.01903367  0.32631925  0.37840739     0.98400
C103        C  0.00369854  0.16027678  0.30742861     0.97600
C104        C  0.00494551  0.33886019  0.30774322     0.89700
C105        C  0.01717445  0.17256958  0.37843917     0.96000
C106        C  0.00002318  0.99997904  0.26841010     0.02700
C107        C  0.00142997  0.44493727  0.28534555    -0.08100
C108        C  0.00279940  0.39602578  0.29492848    -0.09700
C109        C  0.00110333  0.10361706  0.29414129    -0.08100
C110        C  0.00023551  0.05504967  0.28418068    -0.09700
C111        C  0.02237411  0.39840739  0.41795092    -0.08100
C112        C  0.02327426  0.36376468  0.40047520    -0.09700
C113        C  0.01888438  0.10216329  0.41852867    -0.08100
C114        C  0.02039202  0.13601088  0.40078491    -0.09700
C115        C  0.02997666  0.39846274  0.47580106    -0.08100
C116        C  0.03949131  0.35661661  0.48917853    -0.09700
C117        C  0.03254639  0.14612073  0.48930062    -0.08100
C118        C  0.02361186  0.10356811  0.47629831    -0.09700
C119        C  0.02996737  0.39846067  0.55978457    -0.08100
C120        C  0.03948448  0.35661513  0.54640723    -0.09700
C121        C  0.02359753  0.10356689  0.55928587    -0.08100
C122        C  0.03253630  0.14611940  0.54628374    -0.09700
C123        C  0.02326377  0.36376270  0.63511058    -0.08100
C124        C  0.02236119  0.39840530  0.61763470    -0.09700
C125        C  0.01886985  0.10216330  0.61705548    -0.08100
C126        C  0.02038093  0.13601013  0.63479928    -0.09700
C127        C  0.00144293  0.44492983  0.75024083    -0.08100
C128        C  0.00281164  0.39601837  0.74065809    -0.09700
C129        C  0.00111529  0.10360904  0.74144395    -0.08100
C130        C  0.00024813  0.05504133  0.75140451    -0.09700
C131        C  0.39605531  0.50308864  0.79203504    -0.08100
C132        C  0.44490852  0.50141642  0.78238429    -0.09700
C133        C  0.10383433  0.50313433  0.79147711    -0.08100
C134        C  0.05515508  0.50153107  0.78164331    -0.09700
C135        C  0.39765133  0.51944504  0.91611912    -0.08100
C136        C  0.36359965  0.52142594  0.89835709    -0.09700
C137        C  0.10231557  0.51903489  0.91631076    -0.08100
C138        C  0.13586027  0.52123615  0.89837595    -0.09700
C139        C  0.44493758  0.00039648  0.25265104    -0.08100
C140        C  0.39621053  0.00141452  0.24289364    -0.09700
C141        C  0.05514940  0.99981330  0.25265014    -0.08100
C142        C  0.10388672  0.00020283  0.24282754    -0.09700
C143        C  0.35559058  0.52730201  0.98882330    -0.08100
C144        C  0.39676806  0.52149591  0.97458803    -0.09700
C145        C  0.14518978  0.52527251  0.98887136    -0.08100
C146        C  0.10376921  0.51968625  0.97476531    -0.09700
C147        C  0.39727558  0.01576936  0.11849037    -0.08100
C148        C  0.36345603  0.01585109  0.13628563    -0.09700
C149        C  0.13728174  0.01260072  0.13618902    -0.08100
C150        C  0.10337496  0.01133691  0.11844856    -0.09700
C151        C  0.39676621  0.52148701  0.06099797    -0.08100
C152        C  0.35558942  0.52729579  0.04676284    -0.09700
C153        C  0.10376731  0.51967513  0.06082048    -0.08100
C154        C  0.14518844  0.52526502  0.04671466    -0.09700
C155        C  0.05167757  0.51053011  0.10334088     0.07400
C156        C  0.05236227  0.00616170  0.07537418     0.07400
C157        C  0.50005783  0.00060744  0.06193753    -0.13100
C158        C  0.44840707  0.01123947  0.07539173     0.07400
C159        C  0.44843578  0.51095878  0.10359104     0.07400
C160        C  0.99999751  0.50011894  0.11662460    -0.13100
H161        H  0.50001208  0.49990778  0.13799830     0.09500
H162        H  0.00009802  0.99907810  0.04088273     0.09500
C163        C  0.19810171  0.02500414  0.00410762     0.07400
C164        C  0.19810096  0.02500302  0.03147791     0.07400
C165        C  0.25054980  0.02862723  0.04492866    -0.13100
C166        C  0.30309458  0.03071823  0.03148077     0.07400
C167        C  0.30309550  0.03071859  0.00410521     0.07400
C168        C  0.25055146  0.02862865  0.99065707    -0.13100
H169        H  0.25058627  0.02776574  0.96956589     0.09500
H170        H  0.25058336  0.02776313  0.06601983     0.09500
O171        O  0.31583626  0.95555253  0.22202024    -0.67800
O172        O  0.19067448  0.96147673  0.16711859    -0.68800
O173        O  0.31096137  0.96297724  0.16710603    -0.57400
O174        O  0.18498716  0.95474420  0.22199184    -0.65800
O175        O  0.18418479  0.55481648  0.22585737    -0.65300
O176        O  0.30993819  0.56501967  0.17074597    -0.56600
O177        O  0.18900167  0.56496566  0.17083914    -0.69100
O178        O  0.31524369  0.55479759  0.22570095    -0.67900
Cu179      Cu  0.25066093  0.95529043  0.19499993     1.04600
Cu180      Cu  0.24957193  0.56318082  0.19894400     1.04300
C181        C  0.33902973  0.50556132  0.23057893     0.98400
C182        C  0.17245983  0.51826106  0.15968226     0.97600
C183        C  0.32652952  0.51835201  0.15957090     0.89700
C184        C  0.16054743  0.50558233  0.23086755     0.96000
C185        C  0.05221974  0.00614765  0.93286779     0.07400
C186        C  0.05236348  0.00616982  0.96021161     0.07400
C187        C  0.00008672  0.99925744  0.97365235    -0.13100
C188        C  0.44841045  0.01124047  0.96019441     0.07400
C189        C  0.44835709  0.00999141  0.93285191     0.07400
C190        C  0.00005358  0.99975702  0.91952937    -0.13100
H191        H  0.00004358  0.99994889  0.89841901     0.09500
H192        H  0.00009839  0.99908531  0.99470320     0.09500
O193        O  0.18499618  0.95473952  0.81359597    -0.67800
O194        O  0.31096776  0.96297939  0.86848172    -0.68800
O195        O  0.19068084  0.96147853  0.86846908    -0.57400
O196        O  0.31584522  0.95554836  0.81356768    -0.65800
O197        O  0.31525355  0.55479566  0.80988335    -0.65300
O198        O  0.18900848  0.56497486  0.86474468    -0.56600
O199        O  0.30994541  0.56502973  0.86483797    -0.69100
O200        O  0.18419467  0.55481381  0.80972680    -0.67900
Cu201      Cu  0.25066866  0.95528919  0.84058797     1.04600
Cu202      Cu  0.24958039  0.56318434  0.83663991     1.04300
C203        C  0.16082859  0.00191709  0.80586711     0.98400
C204        C  0.32702853  0.01266426  0.87686898     0.97600
C205        C  0.17374989  0.01070448  0.87697016     0.89700
C206        C  0.33937664  0.00292231  0.80578468     0.96000
O207        O  0.46764561  0.81018006  0.66566233    -0.67800
O208        O  0.45788671  0.68468725  0.72033287    -0.68800
O209        O  0.45705395  0.81537210  0.72035952    -0.57400
O210        O  0.46846204  0.68990888  0.66568642    -0.65800
O211        O  0.03093460  0.68996075  0.66485800    -0.65300
O212        O  0.04302807  0.81568030  0.71968474    -0.56600
O213        O  0.04197214  0.68483133  0.71955072    -0.69100
O214        O  0.03254654  0.81034446  0.66492863    -0.67900
Cu215      Cu  0.45935990  0.75003198  0.69339612     1.04600
Cu216      Cu  0.04054502  0.75019711  0.69263718     1.04300
C217        C  0.98282092  0.82746588  0.65710309     0.98400
C218        C  0.99503953  0.66119514  0.72780355     0.97600
C219        C  0.99640506  0.83975542  0.72810508     0.89700
C220        C  0.98076083  0.67371199  0.65714689     0.96000
C221        C  0.98472990  0.55070657  0.57460022     0.07400
C222        C  0.98606862  0.55079203  0.60194210     0.07400
C223        C  0.99969920  0.49997819  0.61526485    -0.13100
C224        C  0.98942793  0.94860017  0.60127694     0.07400
C225        C  0.98893583  0.94834343  0.57395201     0.07400
C226        C  0.99978496  0.49999128  0.56115370    -0.13100
H227        H  0.99982465  0.49999876  0.54014039     0.09500
H228        H  0.99967770  0.49997766  0.63637339     0.09500
C229        C  0.95497090  0.69609657  0.50409228     0.07400
C230        C  0.95496703  0.69609570  0.53149205     0.07400
C231        C  0.95618227  0.74885841  0.54494016    -0.13100
C232        C  0.95987004  0.80146273  0.53147641     0.07400
C233        C  0.95987445  0.80146359  0.50410908     0.07400
C234        C  0.95619053  0.74886012  0.49064469    -0.13100
H235        H  0.95751057  0.74884492  0.46956624     0.09300
H236        H  0.95749605  0.74884191  0.56601869     0.09500
C237        C  0.00003531  0.99997033  0.76717514     0.02700
C238        C  0.98608107  0.55079426  0.43364248     0.07400
C239        C  0.98474086  0.55070894  0.46098435     0.07400
C240        C  0.00042790  0.00000539  0.47508593    -0.13100
C241        C  0.98895174  0.94834426  0.46163400     0.07400
C242        C  0.98944288  0.94860054  0.43430907     0.07400
C243        C  0.00015026  0.00003091  0.42099198    -0.13100
H244        H  0.00004284  0.00003823  0.39988059     0.09500
H245        H  0.00053005  0.99999491  0.49606109     0.09500
O246        O  0.03254655  0.81034925  0.37065487    -0.67800
O247        O  0.04196296  0.68483941  0.31603180    -0.68800
O248        O  0.04301855  0.81568807  0.31589842    -0.57400
O249        O  0.03093487  0.68996570  0.37072478    -0.65800
O250        O  0.46844662  0.68991413  0.36989794    -0.65300
O251        O  0.45704272  0.81537896  0.31522509    -0.56600
O252        O  0.45787420  0.68469433  0.31525151    -0.69100
O253        O  0.46763172  0.81018545  0.36992220    -0.67900
Cu254      Cu  0.04054031  0.75020361  0.34294565     1.04600
Cu255      Cu  0.45934663  0.75003818  0.34218834     1.04300
C256        C  0.98282230  0.82747000  0.37848272     0.98400
C257        C  0.99502898  0.66120315  0.30778110     0.97600
C258        C  0.99639410  0.83976345  0.30748014     0.89700
C259        C  0.98076253  0.67371616  0.37843789     0.96000
C260        C  0.00003117  0.50006124  0.26965956     0.02700
C261        C  0.99986615  0.94496087  0.28421303    -0.08100
C262        C  0.99902821  0.89641129  0.29418864    -0.09700
C263        C  0.99718234  0.60405205  0.29495727    -0.08100
C264        C  0.99858945  0.55515426  0.28536364    -0.09700
C265        C  0.98131414  0.89791042  0.41855503    -0.08100
C266        C  0.97964963  0.86404691  0.40082159    -0.09700
C267        C  0.97721009  0.60158808  0.41796122    -0.08100
C268        C  0.97641914  0.63625509  0.40049502    -0.09700
C269        C  0.97710713  0.89646886  0.47631816    -0.08100
C270        C  0.96810216  0.85391349  0.48930794    -0.09700
C271        C  0.96032458  0.64343606  0.48918000    -0.08100
C272        C  0.96970506  0.60155373  0.47580678    -0.09700
C273        C  0.97709418  0.89646715  0.55926836    -0.08100
C274        C  0.96809285  0.85391176  0.54627837    -0.09700
C275        C  0.96969623  0.60155162  0.55977746    -0.08100
C276        C  0.96031779  0.64343436  0.54640413    -0.09700
C277        C  0.97964414  0.86404472  0.63476477    -0.08100
C278        C  0.98130414  0.89790945  0.61703151    -0.09700
C279        C  0.97720057  0.60158650  0.61762309    -0.08100
C280        C  0.97641325  0.63625277  0.63508948    -0.09700
C281        C  0.99987951  0.94495233  0.75137223    -0.08100
C282        C  0.99904126  0.89640292  0.74139661    -0.09700
C283        C  0.99719477  0.60404420  0.74062782    -0.08100
C284        C  0.99860219  0.55514673  0.75022201    -0.09700
C285        C  0.39622005  0.00140790  0.79269274    -0.08100
C286        C  0.44494712  0.00038884  0.78293494    -0.09700
C287        C  0.10389708  0.00019537  0.79275843    -0.08100
C288        C  0.05516054  0.99980490  0.78293541    -0.09700
C289        C  0.39728012  0.01577469  0.91709601    -0.08100
C290        C  0.36346094  0.01585630  0.89930089    -0.09700
C291        C  0.10337755  0.01134415  0.91713718    -0.08100
C292        C  0.13728560  0.01260595  0.89939690    -0.09700
C293        C  0.44489809  0.50142286  0.25320143    -0.08100
C294        C  0.39604489  0.50309398  0.24355109    -0.09700
C295        C  0.05514359  0.50153832  0.25394286    -0.08100
C296        C  0.10382336  0.50314085  0.24410918    -0.09700
C297        C  0.35550556  0.02810208  0.98906432    -0.08100
C298        C  0.39696685  0.02194136  0.97516392    -0.09700
C299        C  0.14597050  0.01899990  0.98906443    -0.08100
C300        C  0.10440288  0.01328368  0.97519091    -0.09700
C301        C  0.39764560  0.51942674  0.11946675    -0.08100
C302        C  0.36359334  0.52140905  0.13722878    -0.09700
C303        C  0.13585555  0.52122039  0.13720973    -0.08100
C304        C  0.10231212  0.51901666  0.11927486    -0.09700
C305        C  0.39696391  0.02194109  0.06042250    -0.08100
C306        C  0.35550354  0.02810191  0.04652193    -0.09700
C307        C  0.10440171  0.01327747  0.06039467    -0.08100
C308        C  0.14596923  0.01899617  0.04652095    -0.09700
C309        C  0.55173013  0.99084426  0.10272429     0.07400
C310        C  0.55175119  0.48865138  0.07618725     0.07400
C311        C  0.00004308  0.49997040  0.06251961    -0.13100
C312        C  0.94814036  0.48957182  0.07593207     0.07400
C313        C  0.94789490  0.99314608  0.10273043     0.07400
C314        C  0.50004102  0.00037609  0.11605243    -0.13100
H315        H  0.00004057  0.99994040  0.13716692     0.09500
H316        H  0.50005935  0.49998923  0.04171337     0.09500
C317        C  0.69689684  0.46912606  0.00407243     0.07400
C318        C  0.69689632  0.46912452  0.03151287     0.07400
C319        C  0.74970683  0.46912241  0.04491277    -0.13100
C320        C  0.80248485  0.47041509  0.03150632     0.07400
C321        C  0.80248549  0.47041692  0.00407896     0.07400
C322        C  0.74970795  0.46912571  0.99067249    -0.13100
H323        H  0.74971550  0.46990936  0.96958313     0.09500
H324        H  0.74971355  0.46990336  0.06600216     0.09500
O325        O  0.81594676  0.44529924  0.22584620    -0.67800
O326        O  0.69015078  0.43495540  0.17076640    -0.68800
O327        O  0.81108185  0.43514573  0.17083125    -0.57400
O328        O  0.68489339  0.44519122  0.22572163    -0.65800
O329        O  0.68420288  0.04451350  0.22202520    -0.65300
O330        O  0.80947678  0.03849217  0.16714703    -0.56600
O331        O  0.68918107  0.03720416  0.16711254    -0.69100
O332        O  0.81505889  0.04518515  0.22203036    -0.67900
Cu333      Cu  0.75054295  0.43686797  0.19894979     1.04600
Cu334      Cu  0.74943918  0.04474522  0.19502052     1.04300
C335        C  0.83917248  0.99797758  0.22975232     0.98400
C336        C  0.67304743  0.98756672  0.15870192     0.97600
C337        C  0.82633779  0.98924033  0.15864232     0.89700
C338        C  0.66061331  0.99714856  0.22978919     0.96000
C339        C  0.55162936  0.48892924  0.93198857     0.07400
C340        C  0.55175365  0.48866096  0.95939861     0.07400
C341        C  0.50005209  0.49998102  0.97280574    -0.13100
C342        C  0.94814273  0.48958472  0.95965377     0.07400
C343        C  0.94834673  0.48964132  0.93225202     0.07400
C344        C  0.50002877  0.49994280  0.91869687    -0.13100
H345        H  0.50001944  0.49993078  0.89758759     0.09500
H346        H  0.50005947  0.49999310  0.99387256     0.09500
O347        O  0.68490260  0.44518591  0.80986562    -0.67800
O348        O  0.81108842  0.43515060  0.86475663    -0.68800
O349        O  0.69015750  0.43496028  0.86482130    -0.57400
O350        O  0.81595650  0.44529393  0.80974133    -0.65800
O351        O  0.81506838  0.04517771  0.81355338    -0.65300
O352        O  0.68918808  0.03720280  0.86847141    -0.56600
O353        O  0.80948391  0.03848990  0.86843695    -0.69100
O354        O  0.68421220  0.04450692  0.81355854    -0.67900
Cu355      Cu  0.75055103  0.43686758  0.83663792     1.04600
Cu356      Cu  0.74944750  0.04474072  0.84056324     1.04300
C357        C  0.66107729  0.49440089  0.80498256     0.98400
C358        C  0.82756485  0.48187220  0.87591859     0.97600
C359        C  0.67350669  0.48160915  0.87599373     0.89700
C360        C  0.83955980  0.49454598  0.80473705     0.96000
O361        O  0.96889413  0.31001397  0.66491670    -0.67800
O362        O  0.95705412  0.18431954  0.71975849    -0.68800
O363        O  0.95801627  0.31518127  0.71961462    -0.57400
O364        O  0.96743273  0.18962459  0.66499144    -0.65800
O365        O  0.53227239  0.18974678  0.66562389    -0.65300
O366        O  0.54209609  0.31524109  0.72028930    -0.56600
O367        O  0.54291597  0.18456653  0.72031583    -0.69100
O368        O  0.53146953  0.31002066  0.66564596    -0.67900
Cu369      Cu  0.95942519  0.24978761  0.69270456     1.04600
Cu370      Cu  0.54058974  0.24989877  0.69335299     1.04300
C371        C  0.48148847  0.32641272  0.65780454     0.98400
C372        C  0.49625909  0.16053517  0.72866517     0.97600
C373        C  0.49517296  0.33898189  0.72850741     0.89700
C374        C  0.48247492  0.17275232  0.65781722     0.96000
C375        C  0.48853280  0.05144398  0.57479663     0.07400
C376        C  0.48891250  0.05129695  0.60212814     0.07400
C377        C  0.49993900  0.99993150  0.61545933    -0.13100
C378        C  0.48848385  0.44869197  0.60242990     0.07400
C379        C  0.48829281  0.44855403  0.57508935     0.07400
C380        C  0.50009775  0.99995466  0.56134050    -0.13100
H381        H  0.50016011  0.99996461  0.54031233     0.09500
H382        H  0.49988285  0.99992453  0.63657033     0.09500
C383        C  0.46636518  0.19756590  0.50411122     0.07400
C384        C  0.46636591  0.19756546  0.53147553     0.07400
C385        C  0.46569471  0.25017117  0.54493637    -0.13100
C386        C  0.46645048  0.30279307  0.53148230     0.07400
C387        C  0.46644972  0.30279345  0.50410449     0.07400
C388        C  0.46569324  0.25017190  0.49065043    -0.13100
H389        H  0.46668221  0.25015561  0.46956336     0.09300
H390        H  0.46668495  0.25015440  0.56602341     0.09500
C391        C  0.50004113  0.49994677  0.76669447     0.02700
C392        C  0.48890658  0.05130060  0.43345750     0.07400
C393        C  0.48852769  0.05144636  0.46078902     0.07400
C394        C  0.50009205  0.49998351  0.47394015    -0.13100
C395        C  0.48828395  0.44855576  0.46049649     0.07400
C396        C  0.48847106  0.44869416  0.43315593     0.07400
C397        C  0.49993932  0.50000031  0.41981558    -0.13100
H398        H  0.49988491  0.50000455  0.39870653     0.09500
H399        H  0.50015179  0.49997603  0.49497931     0.09500
O400        O  0.53146074  0.31002587  0.36993934    -0.67800
O401        O  0.54290747  0.18457362  0.31526899    -0.68800
O402        O  0.54208657  0.31524811  0.31529586    -0.57400
O403        O  0.53226538  0.18975224  0.36996112    -0.65800
O404        O  0.96743724  0.18962763  0.37059600    -0.65300
O405        O  0.95800853  0.31518801  0.31597427    -0.56600
O406        O  0.95704647  0.18432625  0.31582946    -0.69100
O407        O  0.96889847  0.31001712  0.37067164    -0.67900
Cu408      Cu  0.54058131  0.24990504  0.34223202     1.04600
Cu409      Cu  0.95942348  0.24979256  0.34288379     1.04300
C410        C  0.48147949  0.32641684  0.37778134     0.98400
C411        C  0.49625053  0.16054218  0.30692021     0.97600
C412        C  0.49516314  0.33898869  0.30707829     0.89700
C413        C  0.48246829  0.17275724  0.37776848     0.96000
C414        C  0.49999272  0.00000730  0.26836452     0.02700
C415        C  0.49864570  0.44490418  0.28459263    -0.08100
C416        C  0.49733883  0.39605101  0.29421049    -0.09700
C417        C  0.49893734  0.10372667  0.29385948    -0.08100
C418        C  0.50002184  0.05501835  0.28409696    -0.09700
C419        C  0.47966779  0.39794409  0.41747841    -0.08100
C420        C  0.47783415  0.36356789  0.39993324    -0.09700
C421        C  0.48068295  0.10203929  0.41774249    -0.08100
C422        C  0.47911793  0.13602780  0.40005333    -0.09700
C423        C  0.47752731  0.39699286  0.47541885    -0.08100
C424        C  0.47095286  0.35521813  0.48911277    -0.09700
C425        C  0.47094752  0.14507871  0.48917608    -0.08100
C426        C  0.47769737  0.10308407  0.47564138    -0.09700
C427        C  0.47753224  0.39699173  0.56016751    -0.08100
C428        C  0.47095526  0.35521732  0.54647390    -0.09700
C429        C  0.47770045  0.10308223  0.55994472    -0.08100
C430        C  0.47094930  0.14507765  0.54641046    -0.09700
C431        C  0.47784375  0.36356531  0.63565292    -0.08100
C432        C  0.47967887  0.39794221  0.61810785    -0.09700
C433        C  0.48068814  0.10203480  0.61784343    -0.08100
C434        C  0.47912355  0.13602306  0.63553256    -0.09700
C435        C  0.49865613  0.44489707  0.75099294    -0.08100
C436        C  0.49734916  0.39604398  0.74137518    -0.09700
C437        C  0.49894608  0.10371929  0.74172584    -0.08100
C438        C  0.50003114  0.05501079  0.75148840    -0.09700
C439        C  0.89628893  0.49702132  0.79150243    -0.08100
C440        C  0.94496239  0.49861204  0.78166342    -0.09700
C441        C  0.60406393  0.49681936  0.79200715    -0.08100
C442        C  0.55520199  0.49846992  0.78236466    -0.09700
C443        C  0.89769887  0.48116519  0.91632780    -0.08100
C444        C  0.86415135  0.47894914  0.89839601    -0.09700
C445        C  0.60240691  0.48046546  0.91610412    -0.08100
C446        C  0.63644423  0.47850854  0.89833550    -0.09700
C447        C  0.94485228  0.00007976  0.25267821    -0.08100
C448        C  0.89610330  0.99965354  0.24286570    -0.09700
C449        C  0.55504051  0.99966304  0.25264293    -0.08100
C450        C  0.60376358  0.99867791  0.24287869    -0.09700
C451        C  0.85489656  0.47461210  0.98887444    -0.08100
C452        C  0.89631996  0.48026030  0.97477469    -0.09700
C453        C  0.64449666  0.47260579  0.98881959    -0.08100
C454        C  0.60332928  0.47843620  0.97457979    -0.09700
C455        C  0.89671882  0.98827833  0.11847246    -0.08100
C456        C  0.86281263  0.98725266  0.13621804    -0.09700
C457        C  0.63661475  0.98451256  0.13626619    -0.08100
C458        C  0.60278880  0.98481125  0.11847414    -0.09700
C459        C  0.89631771  0.48025191  0.06081109    -0.08100
C460        C  0.85489509  0.47460725  0.04671102    -0.09700
C461        C  0.60332793  0.47843034  0.06100597    -0.08100
C462        C  0.64449571  0.47260235  0.04676589    -0.09700
C463        C  0.55162492  0.48891434  0.10359731     0.07400
C464        C  0.55169226  0.98983345  0.07538104     0.07400
C465        C  0.00008582  0.99924978  0.06193359    -0.13100
C466        C  0.94778610  0.99261728  0.07538580     0.07400
C467        C  0.94834385  0.48962406  0.10333384     0.07400
C468        C  0.50002293  0.49992348  0.11688903    -0.13100
H469        H  0.99997933  0.50017038  0.13773627     0.09500
H470        H  0.50006291  0.00068009  0.04088693     0.09500
C471        C  0.69695280  0.96967253  0.00410595     0.07400
C472        C  0.69695185  0.96967317  0.03147984     0.07400
C473        C  0.74951135  0.97123675  0.04492892    -0.13100
C474        C  0.80199698  0.97433084  0.03147920     0.07400
C475        C  0.80199786  0.97433069  0.00410715     0.07400
C476        C  0.74951320  0.97123590  0.99065717    -0.13100
H477        H  0.74948387  0.97210333  0.96956601     0.09500
H478        H  0.74948056  0.97210465  0.06602007     0.09500
O479        O  0.81556391  0.94897237  0.22435550    -0.67800
O480        O  0.68989647  0.94067676  0.16954247    -0.68800
O481        O  0.81025660  0.94193739  0.16939896    -0.57400
O482        O  0.68464907  0.94829438  0.22443227    -0.65800
O483        O  0.68498332  0.54126507  0.22242311    -0.65300
O484        O  0.81082505  0.53155014  0.16774668    -0.56600
O485        O  0.69026306  0.53134009  0.16761254    -0.69100
O486        O  0.81566012  0.54137586  0.22259506    -0.67900
Cu487      Cu  0.75012375  0.94170576  0.19755409     1.04600
Cu488      Cu  0.75044580  0.53972837  0.19549088     1.04300
C489        C  0.83954995  0.49455208  0.23084857     0.98400
C490        C  0.67350037  0.48160224  0.15959211     0.97600
C491        C  0.82755876  0.48186521  0.15966734     0.89700
C492        C  0.66106779  0.49440701  0.23060272     0.96000
C493        C  0.55173424  0.99084726  0.93286117     0.07400
C494        C  0.55169555  0.98983352  0.96020443     0.07400
C495        C  0.50006077  0.00060644  0.97364828    -0.13100
C496        C  0.94778752  0.99262360  0.96020028     0.07400
C497        C  0.94789699  0.99315272  0.93285562     0.07400
C498        C  0.50004555  0.00038117  0.91953337    -0.13100
H499        H  0.50003937  0.00028616  0.89842268     0.09500
H500        H  0.50006526  0.00067679  0.99469888     0.09500
O501        O  0.68465809  0.94828762  0.81115351    -0.67800
O502        O  0.81026294  0.94193491  0.86618744    -0.68800
O503        O  0.68990266  0.94067520  0.86604354    -0.57400
O504        O  0.81557339  0.94896472  0.81123057    -0.65800
O505        O  0.81566919  0.54137114  0.81298853    -0.65300
O506        O  0.69026975  0.53134554  0.86797132    -0.56600
O507        O  0.81083162  0.53155563  0.86783717    -0.69100
O508        O  0.68499254  0.54126035  0.81316034    -0.67900
Cu509      Cu  0.75013154  0.94170108  0.83803203     1.04600
Cu510      Cu  0.75045369  0.53972862  0.84009267     1.04300
C511        C  0.66062265  0.99714142  0.80579555     0.98400
C512        C  0.82634389  0.98923883  0.87694301     0.97600
C513        C  0.67305349  0.98756627  0.87688307     0.89700
C514        C  0.83918231  0.99796935  0.80583258     0.96000
O515        O  0.93617213  0.81152491  0.66844795    -0.67800
O516        O  0.94593012  0.68544496  0.72314283    -0.68800
O517        O  0.94700324  0.81634074  0.72329233    -0.57400
O518        O  0.93458906  0.69101290  0.66845359    -0.65800
O519        O  0.56486523  0.69049631  0.66905520    -0.65300
O520        O  0.55310290  0.81586265  0.72394390    -0.56600
O521        O  0.55396003  0.68501815  0.72380068    -0.69100
O522        O  0.56402910  0.81101239  0.66916374    -0.67900
Cu523      Cu  0.93770040  0.75116248  0.69649190     1.04600
Cu524      Cu  0.56224220  0.75063868  0.69715302     1.04300
C525        C  0.51743672  0.82716911  0.65784432     0.98400
C526        C  0.50482162  0.66095005  0.72853971     0.97600
C527        C  0.50371745  0.83940949  0.72869896     0.89700
C528        C  0.51843999  0.67352812  0.65783522     0.96000
C529        C  0.51183975  0.55141747  0.57509505     0.07400
C530        C  0.51150366  0.55129546  0.60243615     0.07400
C531        C  0.49995626  0.49999752  0.61576968    -0.13100
C532        C  0.51104811  0.94857761  0.60213253     0.07400
C533        C  0.51158708  0.94845367  0.57480095     0.07400
C534        C  0.50010069  0.49998155  0.56164510    -0.13100
H535        H  0.50015718  0.49997428  0.54060593     0.09500
H536        H  0.49990469  0.50000160  0.63687874     0.09500
C537        C  0.53385166  0.69714320  0.50410283     0.07400
C538        C  0.53385502  0.69714273  0.53148115     0.07400
C539        C  0.53462180  0.74976470  0.54493471    -0.13100
C540        C  0.53393983  0.80237097  0.53147436     0.07400
C541        C  0.53393634  0.80237134  0.50410971     0.07400
C542        C  0.53461502  0.74976546  0.49064928    -0.13100
H543        H  0.53361481  0.74978245  0.46956226     0.09300
H544        H  0.53362674  0.74978116  0.56602177     0.09500
C545        C  0.50000224  0.99999948  0.76722092     0.02700
C546        C  0.51148757  0.55129832  0.43314856     0.07400
C547        C  0.51182796  0.55141979  0.46048964     0.07400
C548        C  0.50009124  0.99995612  0.47424476    -0.13100
C549        C  0.51157832  0.94845533  0.46078394     0.07400
C550        C  0.51103817  0.94858045  0.43345239     0.07400
C551        C  0.49993069  0.99993529  0.42012595    -0.13100
H552        H  0.49987377  0.99992914  0.39901495     0.09500
H553        H  0.50015432  0.99996520  0.49527294     0.09500
O554        O  0.56401540  0.81101663  0.36642081    -0.67800
O555        O  0.55394773  0.68502449  0.31178380    -0.68800
O556        O  0.55309186  0.81586872  0.31164082    -0.57400
O557        O  0.56484997  0.69050054  0.36652926    -0.65800
O558        O  0.93458868  0.69101787  0.36713343    -0.65300
O559        O  0.94699310  0.81634858  0.31229489    -0.56600
O560        O  0.94592028  0.68545274  0.31244383    -0.69100
O561        O  0.93617149  0.81152989  0.36713974    -0.67900
Cu562      Cu  0.56222915  0.75064388  0.33843154     1.04600
Cu563      Cu  0.93769498  0.75116898  0.33909538     1.04300
C564        C  0.51742275  0.82717365  0.37774021     0.98400
C565        C  0.50480934  0.66095694  0.30704476     0.97600
C566        C  0.50370684  0.83941619  0.30688582     0.89700
C567        C  0.51842399  0.67353244  0.37774914     0.96000
C568        C  0.50003044  0.49995384  0.26889089     0.02700
C569        C  0.49996419  0.94496163  0.28407625    -0.08100
C570        C  0.50103451  0.89624145  0.29382957    -0.09700
C571        C  0.50265891  0.60388295  0.29418760    -0.08100
C572        C  0.50138108  0.55501789  0.28458184    -0.09700
C573        C  0.51921785  0.89784236  0.41773249    -0.08100
C574        C  0.52076136  0.86387511  0.40003470    -0.09700
C575        C  0.52024952  0.60204545  0.41746340    -0.08100
C576        C  0.52206214  0.63640117  0.39990899    -0.09700
C577        C  0.52249555  0.89683161  0.47563396    -0.08100
C578        C  0.52930686  0.85485288  0.48917289    -0.09700
C579        C  0.52930242  0.64472580  0.48910868    -0.08100
C580        C  0.52266840  0.60296950  0.47540907    -0.09700
C581        C  0.52250411  0.89683063  0.55995057    -0.08100
C582        C  0.52931365  0.85485216  0.54641143    -0.09700
C583        C  0.52267780  0.60296765  0.56017515    -0.08100
C584        C  0.52930910  0.64472466  0.54647543    -0.09700
C585        C  0.52077547  0.86387132  0.63554984    -0.08100
C586        C  0.51923051  0.89783916  0.61785213    -0.09700
C587        C  0.52026709  0.60204245  0.61812088    -0.08100
C588        C  0.52207958  0.63639778  0.63567527    -0.09700
C589        C  0.49997348  0.94495400  0.75150916    -0.08100
C590        C  0.50104407  0.89623420  0.74175556    -0.09700
C591        C  0.50267092  0.60387589  0.74139711    -0.08100
C592        C  0.50139262  0.55501088  0.75100322    -0.09700
C593        C  0.89611382  0.99964413  0.79271921    -0.08100
C594        C  0.94486336  0.00007041  0.78290681    -0.09700
C595        C  0.60377320  0.99866995  0.79270611    -0.08100
C596        C  0.55505023  0.99965497  0.78294206    -0.09700
C597        C  0.89672177  0.98828176  0.91711356    -0.08100
C598        C  0.86281704  0.98725336  0.89936768    -0.09700
C599        C  0.60279314  0.98481407  0.91711100    -0.08100
C600        C  0.63661965  0.98451435  0.89931886    -0.09700
C601        C  0.94495103  0.49861980  0.25392255    -0.08100
C602        C  0.89627818  0.49702923  0.24408336    -0.09700
C603        C  0.55519156  0.49847772  0.25322047    -0.08100
C604        C  0.60405386  0.49682732  0.24357797    -0.09700
C605        C  0.85417021  0.97991777  0.98905888    -0.08100
C606        C  0.89574243  0.98547526  0.97517387    -0.09700
C607        C  0.64456275  0.97272175  0.98906931    -0.08100
C608        C  0.60311664  0.97907875  0.97517909    -0.09700
C609        C  0.89769488  0.48115063  0.11925818    -0.08100
C610        C  0.86414640  0.47893791  0.13719003    -0.09700
C611        C  0.63643877  0.47849764  0.13725046    -0.08100
C612        C  0.60240207  0.48045209  0.11948181    -0.09700
C613        C  0.89574092  0.98547176  0.06041243    -0.08100
C614        C  0.85416865  0.97991647  0.04652763    -0.09700
C615        C  0.60311379  0.97907990  0.06040615    -0.08100
C616        C  0.64456072  0.97272300  0.04651610    -0.09700
loop_ 
_geom_bond_atom_site_label_1 
_geom_bond_atom_site_label_2 
_geom_bond_distance 
_geom_bond_site_symmetry_2 
_ccdc_geom_bond_type 
C1            C6   1.390   1_545  A
C1          C156   1.408       .  A
C1          C150   1.433       .  S
C2          C155   1.411       .  A
C2          C311   1.400       .  A
C2          C153   1.440       .  S
C3            C4   1.399       .  A
C3          C310   1.399       .  A
C3          H316   1.085       .  S
C4          C159   1.411       .  A
C4          C151   1.440       .  S
C5          C158   1.408       .  A
C5          C314   1.390       .  A
C5          C147   1.434       .  S
C6          C313   1.390   1_455  A
C6          H315   1.087       .  S
H7          C314   1.087       .  S
H8          C311   1.084       .  S
C9           C10   1.412       .  A
C9           C14   1.397   1_554  A
C9          C145   1.441   1_554  S
C10          C11   1.397       .  A
C10         C154   1.441       .  S
C11          C12   1.397       .  A
C11          H16   1.086       .  S
C12          C13   1.413       .  A
C12         C152   1.441       .  S
C13          C14   1.397   1_554  A
C13         C143   1.441   1_554  S
C14          H15   1.086       .  S
O17         Cu25   2.047       .  S
O17         C181   1.281       .  A
O18         Cu25   2.001       .  S
O18         C182   1.276       .  A
O19         Cu25   2.003       .  S
O19         C183   1.276       .  A
O20         Cu25   2.049       .  S
O20         C184   1.282       .  A
O21         Cu26   2.048       .  S
O21          C30   1.282       .  A
O22         Cu26   1.999       .  S
O22          C29   1.275       .  A
O23         Cu26   2.004       .  S
O23          C28   1.276       .  A
O24         Cu26   2.051       .  S
O24          C27   1.282       .  A
Cu25       Cu180   2.373       .  S
Cu26       Cu179   2.374   1_545  S
C27         C140   1.471       .  S
C27         O171   1.281   1_545  A
C28         C149   1.428       .  S
C28         O172   1.275   1_545  A
C29         C148   1.429       .  S
C29         O173   1.276   1_545  A
C30         C142   1.474       .  S
C30         O174   1.282   1_545  A
C31          C32   1.411       .  A
C31          C36   1.392       .  A
C31         C137   1.438       .  S
C32          C33   1.400       .  A
C32         C146   1.440       .  S
C33         C342   1.400   1_455  A
C33          H38   1.084       .  S
C34          C35   1.411       .  A
C34         C341   1.399       .  A
C34         C144   1.440       .  S
C35         C344   1.393       .  A
C35         C135   1.439       .  S
C36         C343   1.392   1_455  A
C36          H37   1.087   1_455  S
O39         Cu47   2.049       .  S
O39          C49   1.282       .  A
O40         Cu47   2.003       .  S
O40          C50   1.276       .  A
O41         Cu47   2.001       .  S
O41          C51   1.276       .  A
O42         Cu47   2.047       .  S
O42          C52   1.281       .  A
O43         Cu48   2.051       .  S
O43         C206   1.282       .  A
O44         Cu48   2.004       .  S
O44         C205   1.276       .  A
O45         Cu48   1.999       .  S
O45         C204   1.275       .  A
O46         Cu48   2.048       .  S
O46         C203   1.282       .  A
Cu47       Cu202   2.373       .  S
Cu48       Cu201   2.374   1_545  S
C49         C133   1.473       .  S
C49         O200   1.282       .  A
C50         C136   1.434       .  S
C50         O199   1.276       .  A
C51         C138   1.433       .  S
C51         O198   1.276       .  A
C52         C131   1.473       .  S
C52         O197   1.283       .  A
O53         Cu61   2.003       .  S
O53         C371   1.275       .  A
O54         Cu61   2.049       .  S
O54         C372   1.282       .  A
O55         Cu61   2.049       .  S
O55         C373   1.282       .  A
O56         Cu61   2.002       .  S
O56         C374   1.275       .  A
O57         Cu62   2.003       .  S
O57          C66   1.275       .  A
O58         Cu62   2.050       .  S
O58          C65   1.282       .  A
O59         Cu62   2.049       .  S
O59          C64   1.282       .  A
O60         Cu62   2.001       .  S
O60          C63   1.275       .  A
Cu61       Cu370   2.374       .  S
Cu62       Cu369   2.374   1_455  S
C63         C123   1.429       .  S
C63         O361   1.276   1_455  A
C64         C129   1.473       .  S
C64         O362   1.282   1_455  A
C65         C128   1.472       .  S
C65         O363   1.281   1_455  A
C66         C126   1.427       .  S
C66         O364   1.275   1_455  A
C67          C68   1.407       .  A
C67          C72   1.401       .  A
C67         C121   1.439       .  S
C68          C69   1.389       .  A
C68         C125   1.433       .  S
C69         C224   1.389   1_445  A
C69          H74   1.087       .  S
C70          C71   1.408       .  A
C70         C223   1.391   1_455  A
C70         C124   1.435       .  S
C71         C226   1.400   1_455  A
C71         C119   1.439       .  S
C72         C225   1.401   1_445  A
C72          H73   1.080   1_545  S
C75          C76   1.409       .  A
C75          C80   1.397       .  A
C75         C117   1.440       .  S
C76          C77   1.397       .  A
C76         C122   1.440       .  S
C77          C78   1.398       .  A
C77          H82   1.086       .  S
C78          C79   1.411       .  A
C78         C120   1.439       .  S
C79          C80   1.398       .  A
C79         C116   1.439       .  S
C80          H81   1.086       .  S
C83         C127   1.504       .  S
C83         C134   1.504       .  S
C83         C284   1.504   1_455  S
C83         C440   1.504   1_455  S
C84          C85   1.407       .  A
C84         C243   1.389       .  A
C84         C113   1.433       .  S
C85         C240   1.401       .  A
C85         C118   1.439       .  S
C86          C87   1.400   1_655  A
C86         C239   1.400       .  A
C86          H91   1.082       .  S
C87          C88   1.408       .  A
C87         C115   1.439       .  S
C88          C89   1.391   1_455  A
C88         C111   1.435       .  S
C89         C238   1.391       .  A
C89          H90   1.087       .  S
O92        Cu100   2.001       .  S
O92         C102   1.275       .  A
O93        Cu100   2.049       .  S
O93         C103   1.282       .  A
O94        Cu100   2.050       .  S
O94         C104   1.282       .  A
O95        Cu100   2.003       .  S
O95         C105   1.275       .  A
O96        Cu101   2.002       .  S
O96         C413   1.275       .  A
O97        Cu101   2.049       .  S
O97         C412   1.282       .  A
O98        Cu101   2.049       .  S
O98         C411   1.282       .  A
O99        Cu101   2.003       .  S
O99         C410   1.275       .  A
Cu100      Cu409   2.374   1_455  S
Cu101      Cu408   2.374       .  S
C102        C112   1.429       .  S
C102        O407   1.276   1_455  A
C103        C109   1.473       .  S
C103        O406   1.282   1_455  A
C104        C108   1.472       .  S
C104        O405   1.281   1_455  A
C105        C114   1.427       .  S
C105        O404   1.275   1_455  A
C106        C110   1.505   1_565  S
C106        C141   1.505       .  S
C106        C261   1.505   1_455  S
C106        C447   1.505   1_465  S
C107        C260   1.504       .  S
C107        C108   1.229       .  T
C109        C110   1.229       .  T
C111        C112   1.202       .  T
C113        C114   1.201       .  T
C115        C116   1.204       .  T
C117        C118   1.204       .  T
C119        C120   1.204       .  T
C121        C122   1.204       .  T
C123        C124   1.202       .  T
C125        C126   1.201       .  T
C127        C128   1.229       .  T
C129        C130   1.229       .  T
C130        C237   1.505   1_545  S
C131        C132   1.229       .  T
C132        C391   1.504       .  S
C133        C134   1.229       .  T
C135        C136   1.205       .  T
C137        C138   1.204       .  T
C139        C414   1.503       .  S
C139        C140   1.228       .  T
C141        C142   1.230   1_565  T
C143        C144   1.205       .  T
C145        C146   1.205       .  T
C147        C148   1.202       .  T
C149        C150   1.201       .  T
C151        C152   1.205       .  T
C153        C154   1.205       .  T
C155        C160   1.392   1_455  A
C155        C304   1.438       .  S
C156        C465   1.396   1_545  A
C156        C307   1.433       .  S
C157        C464   1.397   1_545  A
C157        C158   1.397       .  A
C157        H470   1.084       .  S
C158        C305   1.433       .  S
C159        C468   1.393       .  A
C159        C301   1.439       .  S
C160        C467   1.392       .  A
C160        H469   1.087       .  S
H161        C468   1.087       .  S
H162        C465   1.084       .  S
C163        C164   1.409       .  A
C163        C168   1.393   1_554  A
C163        C299   1.434   1_554  S
C164        C165   1.393       .  A
C164        C308   1.434       .  S
C165        C166   1.394       .  A
C165        H170   1.086       .  S
C166        C167   1.410       .  A
C166        C306   1.434       .  S
C167        C168   1.394   1_554  A
C167        C297   1.434   1_554  S
C168        H169   1.086       .  S
O171       Cu179   2.045       .  S
O172       Cu179   1.996       .  S
O173       Cu179   2.004       .  S
O174       Cu179   2.053       .  S
O175       Cu180   2.054       .  S
O175        C184   1.282       .  A
O176       Cu180   2.009       .  S
O176        C183   1.276       .  A
O177       Cu180   2.009       .  S
O177        C182   1.276       .  A
O178       Cu180   2.053       .  S
O178        C181   1.283       .  A
C181        C294   1.473       .  S
C182        C303   1.433       .  S
C183        C302   1.434       .  S
C184        C296   1.473       .  S
C185        C186   1.408       .  A
C185        C190   1.390   1_545  A
C185        C291   1.433       .  S
C186        C187   1.396   1_545  A
C186        C300   1.433       .  S
C187        C496   1.396   1_455  A
C187        H192   1.084       .  S
C188        C495   1.397       .  A
C188        C189   1.408       .  A
C188        C298   1.433       .  S
C189        C498   1.390       .  A
C189        C289   1.434       .  S
C190        C497   1.390   1_455  A
C190        H191   1.087       .  S
O193       Cu201   2.053       .  S
O193        C203   1.282   1_565  A
O194       Cu201   2.004       .  S
O194        C204   1.276   1_565  A
O195       Cu201   1.996       .  S
O195        C205   1.275   1_565  A
O196       Cu201   2.045       .  S
O196        C206   1.281   1_565  A
O197       Cu202   2.053       .  S
O198       Cu202   2.009       .  S
O199       Cu202   2.009       .  S
O200       Cu202   2.054       .  S
C203        C287   1.474       .  S
C204        C290   1.429       .  S
C205        C292   1.428       .  S
C206        C285   1.471       .  S
O207       Cu215   1.997       .  S
O207        C525   1.275       .  A
O208       Cu215   2.045       .  S
O208        C526   1.281       .  A
O209       Cu215   2.047       .  S
O209        C527   1.281       .  A
O210       Cu215   1.998       .  S
O210        C528   1.275       .  A
O211       Cu216   2.004       .  S
O211        C220   1.276   1_455  A
O212       Cu216   2.052       .  S
O212        C219   1.282   1_455  A
O213       Cu216   2.045       .  S
O213        C218   1.281   1_455  A
O214       Cu216   1.996       .  S
O214        C217   1.275   1_455  A
Cu215      Cu524   2.374       .  S
Cu216      Cu523   2.374   1_455  S
C217        C277   1.427       .  S
C217        O515   1.275       .  A
C218        C283   1.472       .  S
C218        O516   1.282       .  A
C219        C282   1.473       .  S
C219        O517   1.282       .  A
C220        C280   1.429       .  S
C220        O518   1.275       .  A
C221        C222   1.408       .  A
C221        C226   1.400       .  A
C221        C275   1.439       .  S
C222        C223   1.391       .  A
C222        C279   1.435       .  S
C223        H228   1.087       .  S
C224        C225   1.407       .  A
C224        C278   1.433       .  S
C225        C273   1.439       .  S
C226        H227   1.082       .  S
C229        C230   1.411       .  A
C229        C234   1.398       .  A
C229        C271   1.439       .  S
C230        C231   1.398       .  A
C230        C276   1.439       .  S
C231        C232   1.397       .  A
C231        H236   1.086       .  S
C232        C233   1.409       .  A
C232        C274   1.439       .  S
C233        C234   1.397       .  A
C233        C270   1.439       .  S
C234        H235   1.086       .  S
C237        C281   1.505   1_455  S
C237        C594   1.505   1_465  S
C237        C288   1.505       .  S
C238        C239   1.408       .  A
C238        C267   1.435       .  S
C239        C272   1.439       .  S
C240        C241   1.401   1_445  A
C240        H245   1.080   1_545  S
C241        C242   1.407       .  A
C241        C269   1.439       .  S
C242        C243   1.389   1_665  A
C242        C265   1.433       .  S
C243        H244   1.087       .  S
O246       Cu254   1.996       .  S
O246        C256   1.275   1_455  A
O247       Cu254   2.045       .  S
O247        C257   1.281   1_455  A
O248       Cu254   2.052       .  S
O248        C258   1.282   1_455  A
O249       Cu254   2.004       .  S
O249        C259   1.276   1_455  A
O250       Cu255   1.998       .  S
O250        C567   1.275       .  A
O251       Cu255   2.047       .  S
O251        C566   1.281       .  A
O252       Cu255   2.045       .  S
O252        C565   1.281       .  A
O253       Cu255   1.997       .  S
O253        C564   1.275       .  A
Cu254      Cu563   2.374   1_455  S
Cu255      Cu562   2.374       .  S
C256        C266   1.427       .  S
C256        O561   1.275       .  A
C257        C263   1.472       .  S
C257        O560   1.282       .  A
C258        C262   1.473       .  S
C258        O559   1.282       .  A
C259        C268   1.429       .  S
C259        O558   1.275       .  A
C260        C264   1.504   1_455  S
C260        C601   1.504   1_455  S
C260        C295   1.504       .  S
C261        C262   1.229       .  T
C263        C264   1.229       .  T
C265        C266   1.201       .  T
C267        C268   1.202       .  T
C269        C270   1.203       .  T
C271        C272   1.204       .  T
C273        C274   1.203       .  T
C275        C276   1.204       .  T
C277        C278   1.201       .  T
C279        C280   1.202       .  T
C281        C282   1.229       .  T
C283        C284   1.229       .  T
C285        C286   1.228       .  T
C286        C545   1.503   1_545  S
C287        C288   1.230   1_545  T
C289        C290   1.202       .  T
C291        C292   1.201       .  T
C293        C568   1.504       .  S
C293        C294   1.229       .  T
C295        C296   1.229       .  T
C297        C298   1.201       .  T
C299        C300   1.201       .  T
C301        C302   1.205       .  T
C303        C304   1.204       .  T
C305        C306   1.201       .  T
C307        C308   1.201       .  T
C309        C464   1.408       .  A
C309        C314   1.390   1_565  A
C309        C458   1.434       .  S
C310        C463   1.411       .  A
C310        C461   1.440       .  S
C311        C312   1.400   1_455  A
C312        C467   1.411       .  A
C312        C459   1.440       .  S
C313        C466   1.408       .  A
C313        C455   1.434       .  S
C317        C318   1.413       .  A
C317        C322   1.397   1_554  A
C317        C453   1.441   1_554  S
C318        C319   1.397       .  A
C318        C462   1.441       .  S
C319        C320   1.397       .  A
C319        H324   1.086       .  S
C320        C321   1.412       .  A
C320        C460   1.441       .  S
C321        C322   1.397   1_554  A
C321        C451   1.441   1_554  S
C322        H323   1.086       .  S
O325       Cu333   2.054       .  S
O325        C489   1.282       .  A
O326       Cu333   2.009       .  S
O326        C490   1.276       .  A
O327       Cu333   2.009       .  S
O327        C491   1.276       .  A
O328       Cu333   2.053       .  S
O328        C492   1.283       .  A
O329       Cu334   2.046       .  S
O329        C338   1.281   1_545  A
O330       Cu334   1.997       .  S
O330        C337   1.275   1_545  A
O331       Cu334   2.004       .  S
O331        C336   1.276   1_545  A
O332       Cu334   2.052       .  S
O332        C335   1.282   1_545  A
Cu333      Cu488   2.373       .  S
Cu334      Cu487   2.374   1_545  S
C335        C448   1.474       .  S
C335        O479   1.282       .  A
C336        C457   1.429       .  S
C336        O480   1.275       .  A
C337        C456   1.428       .  S
C337        O481   1.276       .  A
C338        C450   1.471       .  S
C338        O482   1.282       .  A
C339        C340   1.411       .  A
C339        C344   1.393       .  A
C339        C445   1.439       .  S
C340        C341   1.399       .  A
C340        C454   1.440       .  S
C341        H346   1.085       .  S
C342        C343   1.411       .  A
C342        C452   1.440       .  S
C343        C443   1.438       .  S
C344        H345   1.087       .  S
O347       Cu355   2.053       .  S
O347        C357   1.283       .  A
O348       Cu355   2.009       .  S
O348        C358   1.276       .  A
O349       Cu355   2.009       .  S
O349        C359   1.276       .  A
O350       Cu355   2.054       .  S
O350        C360   1.282       .  A
O351       Cu356   2.052       .  S
O351        C514   1.282   1_545  A
O352       Cu356   2.004       .  S
O352        C513   1.276   1_545  A
O353       Cu356   1.997       .  S
O353        C512   1.275   1_545  A
O354       Cu356   2.046       .  S
O354        C511   1.281   1_545  A
Cu355      Cu510   2.373       .  S
Cu356      Cu509   2.374   1_545  S
C357        C441   1.473       .  S
C357        O508   1.281       .  A
C358        C444   1.433       .  S
C358        O507   1.276       .  A
C359        C446   1.434       .  S
C359        O506   1.276       .  A
C360        C439   1.473       .  S
C360        O505   1.282       .  A
O361       Cu369   2.003       .  S
O362       Cu369   2.052       .  S
O363       Cu369   2.045       .  S
O364       Cu369   1.996       .  S
O365       Cu370   1.997       .  S
O365        C374   1.275       .  A
O366       Cu370   2.045       .  S
O366        C373   1.281       .  A
O367       Cu370   2.047       .  S
O367        C372   1.281       .  A
O368       Cu370   1.998       .  S
O368        C371   1.275       .  A
C371        C431   1.428       .  S
C372        C437   1.471       .  S
C373        C436   1.471       .  S
C374        C434   1.427       .  S
C375        C376   1.407       .  A
C375        C380   1.398   1_545  A
C375        C429   1.434       .  S
C376        C377   1.390   1_545  A
C376        C433   1.433       .  S
C377        C532   1.390       .  A
C377        H382   1.087       .  S
C378        C531   1.391       .  A
C378        C379   1.408       .  A
C378        C432   1.434       .  S
C379        C534   1.397       .  A
C379        C427   1.435       .  S
C380        C533   1.398       .  A
C380        H381   1.083       .  S
C383        C384   1.409       .  A
C383        C388   1.395       .  A
C383        C425   1.435       .  S
C384        C385   1.395       .  A
C384        C430   1.435       .  S
C385        C386   1.395       .  A
C385        H390   1.086       .  S
C386        C387   1.410       .  A
C386        C428   1.436       .  S
C387        C388   1.395       .  A
C387        C424   1.436       .  S
C388        H389   1.086       .  S
C391        C435   1.503       .  S
C391        C592   1.503       .  S
C391        C442   1.504       .  S
C392        C393   1.407       .  A
C392        C551   1.390   1_545  A
C392        C421   1.433       .  S
C393        C548   1.398   1_545  A
C393        C426   1.434       .  S
C394        C547   1.397       .  A
C394        C395   1.397       .  A
C394        H399   1.083       .  S
C395        C396   1.408       .  A
C395        C423   1.435       .  S
C396        C397   1.391       .  A
C396        C419   1.434       .  S
C397        C546   1.391       .  A
C397        H398   1.087       .  S
O400       Cu408   1.998       .  S
O400        C410   1.275       .  A
O401       Cu408   2.047       .  S
O401        C411   1.281       .  A
O402       Cu408   2.045       .  S
O402        C412   1.281       .  A
O403       Cu408   1.997       .  S
O403        C413   1.275       .  A
O404       Cu409   1.996       .  S
O405       Cu409   2.045       .  S
O406       Cu409   2.052       .  S
O407       Cu409   2.003       .  S
C410        C420   1.428       .  S
C411        C417   1.471       .  S
C412        C416   1.471       .  S
C413        C422   1.427       .  S
C414        C569   1.503   1_545  S
C414        C418   1.502       .  S
C414        C449   1.503   1_545  S
C415        C568   1.503       .  S
C415        C416   1.228       .  T
C417        C418   1.228       .  T
C419        C420   1.201       .  T
C421        C422   1.201       .  T
C423        C424   1.201       .  T
C425        C426   1.201       .  T
C427        C428   1.201       .  T
C429        C430   1.201       .  T
C431        C432   1.201       .  T
C433        C434   1.201       .  T
C435        C436   1.228       .  T
C437        C438   1.228       .  T
C438        C545   1.502   1_545  S
C439        C440   1.229       .  T
C441        C442   1.229       .  T
C443        C444   1.204       .  T
C445        C446   1.205       .  T
C447        C448   1.230   1_545  T
C449        C450   1.228       .  T
C451        C452   1.205       .  T
C453        C454   1.205       .  T
C455        C456   1.201       .  T
C457        C458   1.202       .  T
C459        C460   1.205       .  T
C461        C462   1.205       .  T
C463        C468   1.393       .  A
C463        C612   1.439       .  S
C464        C615   1.433       .  S
C465        C466   1.396   1_455  A
C466        C613   1.433       .  S
C467        C609   1.438       .  S
C471        C472   1.409       .  A
C471        C476   1.394   1_554  A
C471        C607   1.434   1_554  S
C472        C473   1.394       .  A
C472        C616   1.434       .  S
C473        C474   1.394       .  A
C473        H478   1.086       .  S
C474        C475   1.409       .  A
C474        C614   1.434       .  S
C475        C476   1.394   1_554  A
C475        C605   1.434   1_554  S
C476        H477   1.086       .  S
O479       Cu487   2.049       .  S
O480       Cu487   2.000       .  S
O481       Cu487   2.004       .  S
O482       Cu487   2.051       .  S
O483       Cu488   2.047       .  S
O483        C492   1.281       .  A
O484       Cu488   2.001       .  S
O484        C491   1.276       .  A
O485       Cu488   2.003       .  S
O485        C490   1.276       .  A
O486       Cu488   2.049       .  S
O486        C489   1.282       .  A
C489        C602   1.473       .  S
C490        C611   1.434       .  S
C491        C610   1.433       .  S
C492        C604   1.473       .  S
C493        C494   1.408       .  A
C493        C498   1.390   1_565  A
C493        C599   1.434       .  S
C494        C495   1.397   1_565  A
C494        C608   1.433       .  S
C495        H500   1.084       .  S
C496        C497   1.408       .  A
C496        C606   1.433       .  S
C497        C597   1.434       .  S
C498        H499   1.087       .  S
O501       Cu509   2.051       .  S
O501        C511   1.282       .  A
O502       Cu509   2.004       .  S
O502        C512   1.276       .  A
O503       Cu509   2.000       .  S
O503        C513   1.275       .  A
O504       Cu509   2.049       .  S
O504        C514   1.282       .  A
O505       Cu510   2.049       .  S
O506       Cu510   2.003       .  S
O507       Cu510   2.001       .  S
O508       Cu510   2.047       .  S
C511        C595   1.471       .  S
C512        C598   1.428       .  S
C513        C600   1.429       .  S
C514        C593   1.474       .  S
O515       Cu523   2.003       .  S
O516       Cu523   2.050       .  S
O517       Cu523   2.049       .  S
O518       Cu523   2.001       .  S
O519       Cu524   2.003       .  S
O519        C528   1.275       .  A
O520       Cu524   2.049       .  S
O520        C527   1.282       .  A
O521       Cu524   2.049       .  S
O521        C526   1.282       .  A
O522       Cu524   2.002       .  S
O522        C525   1.275       .  A
C525        C585   1.427       .  S
C526        C591   1.471       .  S
C527        C590   1.471       .  S
C528        C588   1.428       .  S
C529        C530   1.408       .  A
C529        C534   1.397       .  A
C529        C583   1.435       .  S
C530        C531   1.391       .  A
C530        C587   1.434       .  S
C531        H536   1.087       .  S
C532        C533   1.407       .  A
C532        C586   1.433       .  S
C533        C581   1.434       .  S
C534        H535   1.083       .  S
C537        C538   1.410       .  A
C537        C542   1.395       .  A
C537        C579   1.436       .  S
C538        C539   1.395       .  A
C538        C584   1.436       .  S
C539        C540   1.395       .  A
C539        H544   1.086       .  S
C540        C541   1.409       .  A
C540        C582   1.435       .  S
C541        C542   1.395       .  A
C541        C578   1.435       .  S
C542        H543   1.086       .  S
C545        C589   1.503       .  S
C545        C596   1.503       .  S
C546        C547   1.408       .  A
C546        C575   1.434       .  S
C547        C580   1.435       .  S
C548        C549   1.398       .  A
C548        H553   1.083       .  S
C549        C550   1.407       .  A
C549        C577   1.434       .  S
C550        C551   1.390       .  A
C550        C573   1.433       .  S
C551        H552   1.087       .  S
O554       Cu562   2.002       .  S
O554        C564   1.275       .  A
O555       Cu562   2.049       .  S
O555        C565   1.282       .  A
O556       Cu562   2.049       .  S
O556        C566   1.282       .  A
O557       Cu562   2.003       .  S
O557        C567   1.275       .  A
O558       Cu563   2.001       .  S
O559       Cu563   2.049       .  S
O560       Cu563   2.050       .  S
O561       Cu563   2.003       .  S
C564        C574   1.427       .  S
C565        C571   1.471       .  S
C566        C570   1.471       .  S
C567        C576   1.428       .  S
C568        C572   1.503       .  S
C568        C603   1.504       .  S
C569        C570   1.228       .  T
C571        C572   1.228       .  T
C573        C574   1.201       .  T
C575        C576   1.201       .  T
C577        C578   1.201       .  T
C579        C580   1.201       .  T
C581        C582   1.201       .  T
C583        C584   1.201       .  T
C585        C586   1.201       .  T
C587        C588   1.201       .  T
C589        C590   1.228       .  T
C591        C592   1.228       .  T
C593        C594   1.230   1_565  T
C595        C596   1.228       .  T
C597        C598   1.201       .  T
C599        C600   1.202       .  T
C601        C602   1.229       .  T
C603        C604   1.229       .  T
C605        C606   1.201       .  T
C607        C608   1.201       .  T
C609        C610   1.204       .  T
C611        C612   1.205       .  T
C613        C614   1.201       .  T
C615        C616   1.201       .  T
