geometry optimzed in LAMMPS
_audit_creation_date              2020-11-30 
_audit_creation_method            'lammps2cif' 
_symmetry_space_group_name_H-M    'P1' 
_symmetry_Int_Tables_number       1 
_symmetry_cell_setting            triclinic 
loop_ 
_symmetry_equiv_pos_as_xyz 
  x,y,z 
_cell_length_a                    42.140406 
_cell_length_b                    42.731480033545694 
_cell_length_c                    41.96593369670942 
_cell_angle_alpha                 89.28855352950043 
_cell_angle_beta                  90.5572933003157 
_cell_angle_gamma                 120.29468228136251 
loop_ 
_atom_site_label 
_atom_site_type_symbol 
_atom_site_fract_x 
_atom_site_fract_y 
_atom_site_fract_z 
_atom_site_charge 
O1          O  0.47000610  0.30672092  0.37965097    -0.57000
C2          C  0.51286068  0.41233820  0.37919005     0.75600
O3          O  0.40360800  0.35650547  0.34200630    -0.58200
C4          C  0.43977514  0.27701237  0.37929914     0.75600
C5          C  0.41287108  0.34522296  0.44034855     0.78000
Cd6        Cd  0.44342283  0.34558931  0.37891024     1.37500
O7          O  0.51094238  0.38199080  0.37660601    -0.57000
O8          O  0.44193081  0.34374941  0.43752695    -0.55800
C9          C  0.41371303  0.34777473  0.31694940     0.78000
O10         O  0.39718037  0.34583634  0.41463563    -0.58200
O11         O  0.48260028  0.41164474  0.38125649    -0.56600
O12         O  0.41084779  0.27913664  0.37920538    -0.56600
O13         O  0.43654190  0.33712773  0.32080214    -0.55800
O14         O  0.75676574  0.58981810  0.37012505    -0.57000
C15         C  0.65042267  0.54859429  0.37662990     0.75600
O16         O  0.71448756  0.66172951  0.40775714    -0.58200
C17         C  0.78716493  0.61917302  0.37227344     0.75600
C18         C  0.71502626  0.64310747  0.30966765     0.78000
Cd19       Cd  0.71837527  0.61687167  0.37320244     1.37500
O20         O  0.68107284  0.55023938  0.38003483    -0.57000
O21         O  0.70954296  0.65652574  0.33434323    -0.55800
C22         C  0.71852701  0.64876900  0.43379606     0.78000
O23         O  0.72384885  0.61925494  0.31461684    -0.58200
O24         O  0.65163057  0.57838693  0.37167254    -0.56600
O25         O  0.78567079  0.64790413  0.37512905    -0.56600
O26         O  0.72397947  0.62239157  0.43155538    -0.55800
O27         O  0.33899295  0.43089331  0.13024899    -0.57000
C28         C  0.44588961  0.47181673  0.12146829     0.75600
O29         O  0.38172311  0.36149574  0.16552105    -0.58200
C30         C  0.30869673  0.40151551  0.12773692     0.75600
C31         C  0.37816709  0.37257701  0.06566848     0.78000
Cd32       Cd  0.37787251  0.40391451  0.12644403     1.37500
O33         O  0.41498874  0.46984230  0.11926481    -0.57000
O34         O  0.37422237  0.39986438  0.06820036    -0.55800
C35         C  0.38088045  0.37808777  0.19005286     0.78000
O36         O  0.38048226  0.35829420  0.09159967    -0.58200
O37         O  0.44533390  0.44225942  0.12627543    -0.56600
O38         O  0.31052946  0.37304659  0.12438547    -0.56600
O39         O  0.37773702  0.40559185  0.18493405    -0.55800
O40         O  0.62355995  0.71410155  0.12425454    -0.57000
C41         C  0.58173180  0.60941288  0.11635762     0.75600
O42         O  0.69674155  0.67455420  0.08341593    -0.58200
C43         C  0.65326520  0.74423474  0.12352049     0.75600
C44         C  0.67860891  0.67017561  0.18230056     0.78000
Cd45       Cd  0.65122633  0.67621009  0.11972380     1.37500
O46         O  0.58341517  0.63979611  0.11607489    -0.57000
O47         O  0.65288880  0.67690031  0.17831939    -0.55800
C48         C  0.68327291  0.67921531  0.05788450     0.78000
O49         O  0.69283370  0.66679922  0.15704671    -0.58200
O50         O  0.61212803  0.61024202  0.11746792    -0.56600
O51         O  0.68255029  0.74295621  0.12094209    -0.56600
O52         O  0.65626353  0.68403028  0.06120077    -0.55800
O53         O  0.17043944  0.43077802  0.12369561    -0.57000
C54         C  0.10521799  0.47014140  0.12293946     0.75600
O55         O  0.05216132  0.36648297  0.08571569    -0.58200
C56         C  0.17148891  0.40172544  0.12579063     0.75600
C57         C  0.07125772  0.36744852  0.18339635     0.78000
Cd58       Cd  0.10345279  0.40163023  0.12325290     1.37500
O59         O  0.13423335  0.46832255  0.12295155    -0.57000
O60         O  0.10295950  0.39503764  0.18103612    -0.55800
C61         C  0.07204735  0.37344984  0.06127248     0.78000
O62         O  0.05431889  0.35431095  0.15748689    -0.58200
O63         O  0.07539302  0.44021870  0.12378820    -0.56600
O64         O  0.14076196  0.37239796  0.12609610    -0.56600
O65         O  0.10634261  0.39154330  0.06598537    -0.55800
O66         O  0.14149385  0.63891879  0.12363615    -0.57000
C67         C  0.17925588  0.74821353  0.12041951     0.75600
O68         O  0.06358103  0.67019297  0.08353847    -0.58200
C69         C  0.11179450  0.60906026  0.12032882     0.75600
C70         C  0.08539819  0.67699215  0.18273071     0.78000
Cd71       Cd  0.11363010  0.67779023  0.12018700     1.37500
O72         O  0.17983022  0.71907735  0.11709077    -0.57000
O73         O  0.11542216  0.67772970  0.17848928    -0.55800
C74         C  0.08214228  0.67623007  0.05826320     0.78000
O75         O  0.06816777  0.67686008  0.15773482    -0.58200
O76         O  0.14777543  0.74490757  0.12307836    -0.56600
O77         O  0.08304877  0.61110337  0.11686368    -0.56600
O78         O  0.11515637  0.68404282  0.06196939    -0.55800
O79         O  0.95149525  0.37792905  0.36829322    -0.57000
C80         C  0.91498979  0.27177390  0.37378080     0.75600
O81         O  0.02927655  0.34530074  0.33474807    -0.58200
C82         C  0.98116923  0.40810535  0.36812291     0.75600
C83         C  0.01009941  0.34382203  0.43398877     0.78000
Cd84       Cd  0.98087255  0.34058954  0.37082151     1.37500
O85         O  0.91481330  0.30120953  0.37077727    -0.57000
O86         O  0.97886337  0.34024942  0.42887310    -0.55800
C87         C  0.01036790  0.33855048  0.30941986     0.78000
O88         O  0.02813497  0.34501402  0.40951207    -0.58200
O89         O  0.94622822  0.27424229  0.37521987    -0.56600
O90         O  0.01049672  0.40680082  0.36880570    -0.56600
O91         O  0.97771139  0.33175330  0.31279649    -0.55800
O92         O  0.92373235  0.58820117  0.36555939    -0.57000
C93         C  0.98674119  0.54643727  0.36805200     0.75600
O94         O  0.04333476  0.65607531  0.33498306    -0.58200
C95         C  0.92321562  0.61743258  0.36798994     0.75600
C96         C  0.01837932  0.64439864  0.43201904     0.78000
Cd97       Cd  0.98998244  0.61577118  0.36924876     1.37500
O98         O  0.95805107  0.54870406  0.36564095    -0.57000
O99         O  0.98637026  0.61778324  0.42780566    -0.55800
C100        C  0.02504610  0.64955186  0.30937913     0.78000
O101        O  0.03699335  0.65867580  0.40704061    -0.58200
O102        O  0.01655330  0.57612021  0.37095564    -0.56600
O103        O  0.95409785  0.64630084  0.37061404    -0.56600
O104        O  0.99068015  0.62915606  0.31191072    -0.55800
O105        O  0.74677520  0.13347180  0.37787033    -0.57000
C106        C  0.64021880  0.06551499  0.37803480     0.75600
O107        O  0.71767702  0.06885580  0.32185902    -0.58200
C108        C  0.77767014  0.13543247  0.38020057     0.75600
C109        C  0.70983479  0.03772534  0.44251178     0.78000
Cd110      Cd  0.70979209  0.06709283  0.37987785     1.37500
O111        O  0.67095776  0.09447325  0.37656970    -0.57000
O112        O  0.71002938  0.06715994  0.43831406    -0.55800
C113        C  0.71321597  0.03751241  0.31889874     0.78000
O114        O  0.71033500  0.02166155  0.41750045    -0.58200
O115        O  0.64132882  0.03649876  0.37996191    -0.56600
O116        O  0.77706136  0.10559014  0.38305600    -0.56600
O117        O  0.70747649  0.01937980  0.34446653    -0.55800
O118        O  0.46828168  0.13975014  0.37886639    -0.57000
C119        C  0.50386818  0.06789170  0.38000281     0.75600
O120        O  0.39261929  0.02811125  0.41667304    -0.58200
C121        C  0.43892316  0.14107006  0.37852816     0.75600
C122        C  0.41076856  0.04517843  0.31700852     0.78000
Cd123      Cd  0.43856804  0.07357466  0.37947344     1.37500
O124        O  0.50486980  0.09799166  0.38047435    -0.57000
O125        O  0.43805082  0.07646162  0.32152205    -0.55800
C126        C  0.40857813  0.04573959  0.44160931     0.78000
O127        O  0.39468032  0.02700612  0.34182723    -0.58200
O128        O  0.47224707  0.03990679  0.37976702    -0.56600
O129        O  0.40913462  0.11085888  0.37849772    -0.56600
O130        O  0.43738478  0.07607093  0.43740547    -0.55800
O131        O  0.41965038  0.92481311  0.12914398    -0.57000
C132        C  0.31381197  0.88749929  0.12794670     0.75600
O133        O  0.39307260  0.00389181  0.16583455    -0.58200
C134        C  0.45068266  0.95351562  0.12947852     0.75600
C135        C  0.37940540  0.98515139  0.06802096     0.78000
Cd136      Cd  0.38238938  0.95454768  0.12917309     1.37500
O137        O  0.34450716  0.88879645  0.12885515    -0.57000
O138        O  0.38448715  0.00272471  0.09347374    -0.55800
C139        C  0.38289555  0.98433601  0.19077425     0.78000
O140        O  0.37509584  0.95381797  0.07119160    -0.58200
O141        O  0.31484328  0.91765756  0.12845973    -0.56600
O142        O  0.45015555  0.98282339  0.12930844    -0.56600
O143        O  0.37134910  0.95101507  0.18688699    -0.55800
O144        O  0.62572782  0.88088036  0.13273061    -0.57000
C145        C  0.58534540  0.94767268  0.13219796     0.75600
O146        O  0.69894501  0.99442665  0.16809790    -0.58200
C147        C  0.65557978  0.88060789  0.13074136     0.75600
C148        C  0.68183203  0.97556899  0.06926110     0.78000
Cd149      Cd  0.65351089  0.94646500  0.13205401     1.37500
O150        O  0.58577495  0.91829327  0.13317833    -0.57000
O151        O  0.69411009  0.99471257  0.09409753    -0.55800
C152        C  0.68619182  0.97616339  0.19355401     0.78000
O153        O  0.65761883  0.94273915  0.07366860    -0.58200
O154        O  0.61641189  0.97633409  0.13157580    -0.56600
O155        O  0.68486955  0.91123774  0.13002565    -0.56600
O156        O  0.65967224  0.94418828  0.19024255    -0.55800
C157        C  0.48540010  0.95253185  0.13014874    -0.04600
C158        C  0.48386960  0.91891799  0.12969597    -0.32100
C159        C  0.51597843  0.91683932  0.13034402     0.37200
C160        C  0.55068059  0.94877372  0.13161078    -0.05000
C161        C  0.55222990  0.98241612  0.13203543    -0.32000
C162        C  0.52009791  0.98448695  0.13152106     0.37100
H163        H  0.45760402  0.89394995  0.12879234     0.17400
O164        O  0.51294273  0.88334667  0.13000473    -0.59500
H165        H  0.57850430  0.00737842  0.13294216     0.17500
O166        O  0.52310032  0.01795776  0.13218358    -0.59600
H167        H  0.52354666  0.02351299  0.15514960     0.44500
H168        H  0.51139602  0.87708554  0.10713942     0.44400
C169        C  0.39963345  0.03029437  0.28445336    -0.04600
C170        C  0.37670593  0.99280773  0.28032725    -0.32100
C171        C  0.36970680  0.97754226  0.24989507     0.37200
C172        C  0.38581768  0.99983534  0.22281832    -0.05000
C173        C  0.40710700  0.03749080  0.22683589    -0.32000
C174        C  0.41402877  0.05274848  0.25721007     0.37100
H175        H  0.36518527  0.97502677  0.30083956     0.17400
O176        O  0.34802535  0.94067195  0.24712027    -0.59500
H177        H  0.41956076  0.05522372  0.20643578     0.17500
O178        O  0.43593562  0.08959937  0.25993987    -0.59600
H179        H  0.41869020  0.09902373  0.26011029     0.44500
H180        H  0.32312066  0.93638351  0.24196657     0.44400
C181        C  0.39558319  0.03109225  0.47403563    -0.04600
C182        C  0.37336053  0.99354499  0.47852087    -0.32100
C183        C  0.36562064  0.97837870  0.00918869     0.37200
C184        C  0.38050949  0.00079245  0.03608052    -0.05000
C185        C  0.39990784  0.03854318  0.03170079    -0.32000
C186        C  0.40764770  0.05375493  0.50098082     0.37100
H187        H  0.36326605  0.97566302  0.45819100     0.17400
O188        O  0.34446678  0.94147080  0.01250990    -0.59500
H189        H  0.41083505  0.05632233  0.05204972     0.17500
O190        O  0.42725957  0.09076927  0.49758371    -0.59600
H191        H  0.45335758  0.09769273  0.50061585     0.44500
H192        H  0.31897460  0.93659048  0.01518371     0.44400
C193        C  0.70761154  0.02245402  0.47491292    -0.04600
C194        C  0.69290860  0.98496851  0.47903875    -0.32100
C195        C  0.68555329  0.96925890  0.00961080     0.37200
C196        C  0.69368231  0.99124159  0.03681940    -0.05000
C197        C  0.71079938  0.02893753  0.03265399    -0.32000
C198        C  0.71723764  0.04451027  0.50214168     0.37100
H199        H  0.68539835  0.96750703  0.45847502     0.17400
O200        O  0.66910387  0.93230277  0.01244105    -0.59500
H201        H  0.71761039  0.04643277  0.05312201     0.17500
O202        O  0.73272490  0.08137702  0.49925967    -0.59600
H203        H  0.71234937  0.08616280  0.50299557     0.44500
H204        H  0.68962154  0.92744560  0.01541355     0.44400
C205        C  0.71296104  0.02251190  0.28709001    -0.04600
C206        C  0.69730160  0.98493930  0.28343640    -0.32100
C207        C  0.69089997  0.96959659  0.25304336     0.37200
C208        C  0.69976834  0.99184129  0.22558198    -0.05000
C209        C  0.71855621  0.02960209  0.22930288    -0.32000
C210        C  0.72541680  0.04497812  0.25968573     0.37100
H211        H  0.68839821  0.96716530  0.30412223     0.17400
O212        O  0.67458491  0.93268380  0.25052699    -0.59500
H213        H  0.72637750  0.04731022  0.20859713     0.17500
O214        O  0.74300610  0.08197969  0.26217316    -0.59600
H215        H  0.76954285  0.08993762  0.26370027     0.44500
H216        H  0.69523531  0.92795706  0.24841279     0.44400
C217        C  0.53808250  0.06612093  0.37940574    -0.04600
C218        C  0.57171728  0.09852048  0.37595626    -0.32100
C219        C  0.60486298  0.09863510  0.37527792     0.37200
C220        C  0.60511779  0.06579762  0.37787455    -0.05000
C221        C  0.57141649  0.03318473  0.38110811    -0.32000
C222        C  0.53811233  0.03316205  0.38219426     0.37100
H223        H  0.57251740  0.12420417  0.37384867     0.17400
O224        O  0.63690458  0.13130364  0.37279962    -0.59500
H225        H  0.57084372  0.00761575  0.38330666     0.17500
O226        O  0.50596004  0.00085298  0.38621095    -0.59600
H227        H  0.50358033  0.99652084  0.40958837     0.44500
H228        H  0.64108489  0.13607347  0.34958282     0.44400
C229        C  0.88025333  0.23662092  0.37559576    -0.04600
C230        C  0.84676694  0.23628057  0.37448944    -0.32100
C231        C  0.81325144  0.20376025  0.37616526     0.37200
C232        C  0.81265236  0.17053526  0.37918169    -0.05000
C233        C  0.84616096  0.17087644  0.38040821    -0.32000
C234        C  0.87971498  0.20343311  0.37833188     0.37100
H235        H  0.84640198  0.26138070  0.37216806     0.17400
O236        O  0.78134708  0.20489573  0.37411244    -0.59500
H237        H  0.84645736  0.14573534  0.38254910     0.17500
O238        O  0.91168462  0.20233712  0.37900126    -0.59600
H239        H  0.91625905  0.19895918  0.35650162     0.44500
H240        H  0.77612810  0.20888880  0.39625430     0.44400
C241        C  0.98192648  0.44314672  0.36746302    -0.04600
C242        C  0.01575458  0.47542507  0.37067575    -0.32100
C243        C  0.01777273  0.50908284  0.37044392     0.37200
C244        C  0.98546124  0.51110397  0.36758526    -0.05000
C245        C  0.95155895  0.47880642  0.36421857    -0.32000
C246        C  0.94964128  0.44510325  0.36382203     0.37100
H247        H  0.04097794  0.47471437  0.37339028     0.17400
O248        O  0.05157570  0.53976673  0.37340565    -0.59500
H249        H  0.92635971  0.47959721  0.36171575     0.17500
O250        O  0.91604559  0.41436551  0.35992041    -0.59600
H251        H  0.91282249  0.41086219  0.33652479     0.44500
H252        H  0.06127288  0.54611197  0.35135569     0.44400
C253        C  0.07118974  0.67537731  0.21529045    -0.04600
C254        C  0.09371833  0.67987514  0.24183101    -0.32100
C255        C  0.07985275  0.67425455  0.27286786     0.37200
C256        C  0.04254055  0.66300596  0.27783332    -0.05000
C257        C  0.02069141  0.66077569  0.25146502    -0.32000
C258        C  0.03481732  0.66730242  0.22048841     0.37100
H259        H  0.12199532  0.68675668  0.23854509     0.17400
O260        O  0.10240255  0.67733468  0.29788540    -0.59500
H261        H  0.99209598  0.65275801  0.25473184     0.17500
O262        O  0.01206781  0.66356760  0.19544308    -0.59600
H263        H  0.01620420  0.68829437  0.19140568     0.44500
H264        H  0.11321703  0.70273433  0.30519439     0.44400
C265        C  0.06585399  0.67279055  0.02604317    -0.04600
C266        C  0.02747869  0.65360957  0.02220453    -0.32100
C267        C  0.01145603  0.64563052  0.49174030     0.37200
C268        C  0.03388583  0.65689114  0.46436874    -0.05000
C269        C  0.07211964  0.67830732  0.46824302    -0.32000
C270        C  0.08813467  0.68625870  0.99866029     0.37100
H271        H  0.00974814  0.64360315  0.04286273     0.17400
O272        O  0.97386562  0.62698897  0.48904106    -0.59500
H273        H  0.08990957  0.68790896  0.44760622     0.17500
O274        O  0.12561068  0.70743553  0.00130363    -0.59600
H275        H  0.13531686  0.69114928  0.99656000     0.44500
H276        H  0.96627313  0.60117577  0.49266679     0.44400
C277        C  0.21358777  0.78406237  0.12158765    -0.04600
C278        C  0.21200716  0.81592874  0.12540658    -0.32100
C279        C  0.24425716  0.84991187  0.12706855     0.37200
C280        C  0.27890934  0.85238189  0.12591719    -0.05000
C281        C  0.28037098  0.82058221  0.12188755    -0.32000
C282        C  0.24831470  0.78685900  0.11939925     0.37100
H283        H  0.18570646  0.81460811  0.12690873     0.17400
O284        O  0.24147159  0.88036931  0.13000508    -0.59500
H285        H  0.30659100  0.82174849  0.12026239     0.17500
O286        O  0.25143451  0.75692321  0.11411629    -0.59600
H287        H  0.25475228  0.74885997  0.13558048     0.44500
H288        H  0.24067284  0.88826964  0.10780504     0.44400
C289        C  0.05485758  0.35310012  0.21505223    -0.04600
C290        C  0.07809028  0.36259433  0.24178384    -0.32100
C291        C  0.06386910  0.35590661  0.27267036     0.37200
C292        C  0.02570155  0.33997360  0.27737355    -0.05000
C293        C  0.00224826  0.32805096  0.25059985    -0.32000
C294        C  0.01651764  0.33408495  0.21963766     0.37100
H295        H  0.10764662  0.37670218  0.23877945     0.17400
O296        O  0.08785603  0.36753498  0.29794212    -0.59500
H297        H  0.97276420  0.31522061  0.25356638     0.17500
O298        O  0.99283797  0.32398711  0.19416261    -0.59600
H299        H  0.98666971  0.29885494  0.18928357     0.44500
H300        H  0.09106908  0.34667393  0.30363776     0.44400
C301        C  0.02504348  0.34775433  0.46679009    -0.04600
C302        C  0.06273812  0.36099907  0.47133326    -0.32100
C303        C  0.07829092  0.36849853  0.00194057     0.37200
C304        C  0.05601667  0.36245266  0.02886861    -0.05000
C305        C  0.01804384  0.34777653  0.02439933    -0.32000
C306        C  0.00253601  0.34049087  0.49379221     0.37100
H307        H  0.08054184  0.36659847  0.45101405     0.17400
O308        O  0.11532401  0.38169924  0.00516996    -0.59500
H309        H  0.00026859  0.34266002  0.04465579     0.17500
O310        O  0.96525289  0.32583710  0.49064651    -0.59600
H311        H  0.96097650  0.34651508  0.49270141     0.44500
H312        H  0.12716699  0.40787321  0.99978426     0.44400
C313        C  0.10637087  0.50536973  0.12194322    -0.04600
C314        C  0.14002945  0.53745177  0.12667050    -0.32100
C315        C  0.14226318  0.57125176  0.12612187     0.37200
C316        C  0.11046440  0.57363500  0.12059691    -0.05000
C317        C  0.07682676  0.54151886  0.11535766    -0.32000
C318        C  0.07459305  0.50766324  0.11597716     0.37100
H319        H  0.16487690  0.53643140  0.13102774     0.17400
O320        O  0.17586380  0.60177062  0.13065319    -0.59500
H321        H  0.05205093  0.54255893  0.11064362     0.17500
O322        O  0.04144997  0.47720801  0.10964609    -0.59600
H323        H  0.02862487  0.46966133  0.13044110     0.44500
H324        H  0.17911651  0.60427788  0.15411061     0.44400
C325        C  0.65574535  0.84609955  0.12910958    -0.04600
C326        C  0.62250670  0.81326973  0.13284297    -0.32100
C327        C  0.62122844  0.78003658  0.13100895     0.37200
C328        C  0.65370439  0.77903555  0.12554193    -0.05000
C329        C  0.68698241  0.81186228  0.12176998    -0.32000
C330        C  0.68814436  0.84514369  0.12314069     0.37100
H331        H  0.59716151  0.81321141  0.13712007     0.17400
O332        O  0.58789118  0.74876788  0.13411621    -0.59500
H333        H  0.71223137  0.81181197  0.11729028     0.17500
O334        O  0.72106778  0.87643153  0.11831774    -0.59600
H335        H  0.72228722  0.88098049  0.09499151     0.44500
H336        H  0.58454073  0.74391250  0.15740630     0.43200
C337        C  0.20667685  0.40189149  0.12752767    -0.04600
C338        C  0.20664599  0.36930719  0.12354148    -0.32100
C339        C  0.23944073  0.36856338  0.12412453     0.37200
C340        C  0.27326799  0.40088930  0.12851399    -0.05000
C341        C  0.27322369  0.43334316  0.13339269    -0.32000
C342        C  0.24040888  0.43407688  0.13288286     0.37100
H343        H  0.18108422  0.34421649  0.11956279     0.17400
O344        O  0.23801300  0.33614450  0.11965137    -0.59500
H345        H  0.29877411  0.45845029  0.13740832     0.17500
O346        O  0.24166183  0.46627323  0.13832032    -0.59600
H347        H  0.24843016  0.47935470  0.11752655     0.44500
H348        H  0.23423867  0.32507252  0.14121808     0.44400
C349        C  0.48059341  0.50690337  0.11882389    -0.04600
C350        C  0.48008192  0.53927029  0.12251063    -0.32100
C351        C  0.51255067  0.57291872  0.12105850     0.37200
C352        C  0.54644566  0.57464054  0.11597493    -0.05000
C353        C  0.54679153  0.54227425  0.11158574    -0.32000
C354        C  0.51432652  0.50868719  0.11282306     0.37100
H355        H  0.45445976  0.53853768  0.12712317     0.17400
O356        O  0.51087224  0.60372840  0.12592226    -0.59500
H357        H  0.57242157  0.54290659  0.10729662     0.17500
O358        O  0.51605727  0.47786028  0.10823492    -0.59600
H359        H  0.50976236  0.47178435  0.08542693     0.44500
H360        H  0.50579486  0.61057492  0.10459601     0.44400
C361        C  0.88837813  0.61782416  0.36828558    -0.04600
C362        C  0.88889380  0.65009067  0.37545624    -0.32100
C363        C  0.85630372  0.65113396  0.37674298     0.37200
C364        C  0.82230979  0.61941729  0.37111785    -0.05000
C365        C  0.82183611  0.58718036  0.36390049    -0.32000
C366        C  0.85439547  0.58623715  0.36218672     0.37100
H367        H  0.91465288  0.67465929  0.38033620     0.17400
O368        O  0.85806794  0.68311935  0.38424514    -0.59500
H369        H  0.79609027  0.56248677  0.35928224     0.17500
O370        O  0.85249388  0.55416378  0.35472482    -0.59600
H371        H  0.85311115  0.55391627  0.33111881     0.44500
H372        H  0.86192391  0.69614870  0.36363975     0.44400
C373        C  0.70952768  0.65325715  0.27686375    -0.04600
C374        C  0.69039566  0.67201210  0.27254289    -0.32100
C375        C  0.68101918  0.67838635  0.24199518     0.37200
C376        C  0.69067080  0.66595151  0.21476067    -0.05000
C377        C  0.71100346  0.64835067  0.21897000    -0.32000
C378        C  0.72057301  0.64213611  0.24959105     0.37100
H379        H  0.68169383  0.68097437  0.29299459     0.17400
O380        O  0.66184661  0.69637600  0.23917895    -0.59500
H381        H  0.71890025  0.63866754  0.19849234     0.17500
O382        O  0.74014163  0.62454933  0.25249548    -0.59600
H383        H  0.76632311  0.64409354  0.25289041     0.44500
H384        H  0.68081523  0.72218078  0.23581439     0.44400
C385        C  0.69698871  0.67713630  0.02589832    -0.04600
C386        C  0.72045377  0.66287797  0.02312894    -0.32100
C387        C  0.72942699  0.65538419  0.49320374     0.37200
C388        C  0.71494274  0.66214921  0.46523033    -0.05000
C389        C  0.69368800  0.67882032  0.46784574    -0.32000
C390        C  0.68462147  0.68625559  0.99777218     0.37100
H391        H  0.73073274  0.65606038  0.04427688     0.17400
O392        O  0.75145124  0.64036034  0.49167860    -0.59500
H393        H  0.68249320  0.68451876  0.44666632     0.17500
O394        O  0.66236011  0.70101398  0.99915108    -0.59600
H395        H  0.67922948  0.72759996  0.99721358     0.44500
H396        H  0.77694818  0.66123618  0.49164857     0.44400
C397        C  0.43930506  0.17596736  0.37830319    -0.04600
C398        C  0.40597951  0.17595676  0.37972788    -0.32100
C399        C  0.40550172  0.20848161  0.37989297     0.37200
C400        C  0.43880558  0.24192561  0.37887700    -0.05000
C401        C  0.47205358  0.24190602  0.37722759    -0.32000
C402        C  0.47252722  0.20947297  0.37666209     0.37100
H403        H  0.38006870  0.15061605  0.38073478     0.17400
O404        O  0.37228023  0.20709645  0.38058469    -0.59500
H405        H  0.49800973  0.26720885  0.37613920     0.17500
O406        O  0.50575563  0.21103591  0.37465114    -0.59600
H407        H  0.51076704  0.21205332  0.35145944     0.44500
H408        H  0.36703502  0.20760646  0.40350337     0.44400
C409        C  0.40094229  0.35146181  0.28480595    -0.04600
C410        C  0.38632669  0.37433592  0.28051101    -0.32100
C411        C  0.37845678  0.38226932  0.24998487     0.37200
C412        C  0.38484487  0.36696322  0.22286546    -0.05000
C413        C  0.39752188  0.34246572  0.22731805    -0.32000
C414        C  0.40561922  0.33472369  0.25787778     0.37100
H415        H  0.38235625  0.38739629  0.30081220     0.17400
O416        O  0.36582480  0.40611449  0.24699530    -0.59500
H417        H  0.40244792  0.33018115  0.20695176     0.17500
O418        O  0.41909327  0.31156368  0.26096091    -0.59600
H419        H  0.39711821  0.28716454  0.26389737     0.44500
H420        H  0.33868465  0.39099044  0.24883099     0.44400
C421        C  0.38155803  0.35969474  0.03388901    -0.04600
C422        C  0.36995900  0.37077061  0.00667157    -0.32100
C423        C  0.37794657  0.36417872  0.47601940     0.37200
C424        C  0.39895010  0.34726462  0.47208597    -0.05000
C425        C  0.40887079  0.33444725  0.49920461    -0.32000
C426        C  0.39962562  0.33981578  0.02987005     0.37100
H427        H  0.35553780  0.38561443  0.00912373     0.17400
O428        O  0.36737573  0.37678670  0.45021265    -0.59500
H429        H  0.42448118  0.32079613  0.49668283     0.17500
O430        O  0.41055767  0.32760562  0.05571814    -0.59600
H431        H  0.39103727  0.30188465  0.05853272     0.44500
H432        H  0.34220695  0.35691586  0.44484083     0.44400
C433        C  0.54831951  0.44687603  0.37954258    -0.04600
C434        C  0.54833288  0.47960271  0.37639252    -0.32100
C435        C  0.58123230  0.51277297  0.37551548     0.37200
C436        C  0.61515946  0.51382598  0.37817198    -0.05000
C437        C  0.61517152  0.48111159  0.38202869    -0.32000
C438        C  0.58216518  0.44786209  0.38284119     0.37100
H439        H  0.52269050  0.47958164  0.37409936     0.17400
O440        O  0.57973853  0.54398225  0.37224559    -0.59500
H441        H  0.64085085  0.48120291  0.38430258     0.17500
O442        O  0.58343770  0.41660256  0.38678670    -0.59600
H443        H  0.58198198  0.41221766  0.41015545     0.44500
H444        H  0.57691949  0.54660463  0.34903081     0.44400
O445        O  0.47000494  0.30672160  0.87964944    -0.57000
C446        C  0.51285796  0.41233715  0.87918743     0.75600
O447        O  0.40361192  0.35651367  0.84200441    -0.58200
C448        C  0.43977436  0.27701265  0.87929761     0.75600
C449        C  0.41286709  0.34522175  0.94034748     0.78000
Cd450      Cd  0.44341985  0.34558866  0.87890925     1.37500
O451        O  0.51093949  0.38198958  0.87660431    -0.57000
O452        O  0.44192953  0.34375311  0.93752605    -0.55800
C453        C  0.41370995  0.34777446  0.81694828     0.78000
O454        O  0.39717385  0.34583022  0.91463452    -0.58200
O455        O  0.48259771  0.41164396  0.88125379    -0.56600
O456        O  0.41084656  0.27913618  0.87920457    -0.56600
O457        O  0.43653160  0.33711859  0.82080195    -0.55800
O458        O  0.75676609  0.58981514  0.87013060    -0.57000
C459        C  0.65042050  0.54859257  0.87662706     0.75600
O460        O  0.71448647  0.66172530  0.90775657    -0.58200
C461        C  0.78716512  0.61917077  0.87227513     0.75600
C462        C  0.71502705  0.64310456  0.80966721     0.78000
Cd463      Cd  0.71837468  0.61686846  0.87320181     1.37500
O464        O  0.68107027  0.55023659  0.88003120    -0.57000
O465        O  0.70955331  0.65652984  0.83434289    -0.55800
C466        C  0.71852545  0.64876428  0.93379538     0.78000
O467        O  0.72383918  0.61924439  0.81461619    -0.58200
O468        O  0.65162921  0.57838594  0.87167181    -0.56600
O469        O  0.78567047  0.64790208  0.87512589    -0.56600
O470        O  0.72397687  0.62238619  0.93155470    -0.55800
O471        O  0.33899320  0.43089549  0.63024313    -0.57000
C472        C  0.44588913  0.47181809  0.62147053     0.75600
O473        O  0.38172300  0.36149700  0.66551970    -0.58200
C474        C  0.30869687  0.40151749  0.62773292     0.75600
C475        C  0.37816949  0.37257794  0.56566894     0.78000
Cd476      Cd  0.37787239  0.40391572  0.62644315     1.37500
O477        O  0.41498825  0.46984412  0.61927114    -0.57000
O478        O  0.37422263  0.39986415  0.56819992    -0.55800
C479        C  0.38087861  0.37808806  0.69005147     0.78000
O480        O  0.38048561  0.35829639  0.59160049    -0.58200
O481        O  0.44533362  0.44226005  0.62627196    -0.56600
O482        O  0.31052943  0.37304817  0.62438390    -0.56600
O483        O  0.37773373  0.40559128  0.68493272    -0.55800
O484        O  0.62355991  0.71410335  0.62425484    -0.57000
C485        C  0.58173042  0.60941499  0.61636195     0.75600
O486        O  0.69674159  0.67455848  0.58341666    -0.58200
C487        C  0.65326566  0.74423623  0.62352285     0.75600
C488        C  0.67861098  0.67017700  0.68230127     0.78000
Cd489      Cd  0.65122589  0.67621162  0.61972549     1.37500
O490        O  0.58341378  0.63979820  0.61608337    -0.57000
O491        O  0.65289808  0.67691235  0.67832114    -0.55800
C492        C  0.68327229  0.67921883  0.55788532     0.78000
O493        O  0.69282768  0.66679029  0.65704677    -0.58200
O494        O  0.61212675  0.61024412  0.61746718    -0.56600
O495        O  0.68255066  0.74295729  0.62094559    -0.56600
O496        O  0.65626213  0.68403259  0.56120183    -0.55800
O497        O  0.17043853  0.43077873  0.62369455    -0.57000
C498        C  0.10521719  0.47014161  0.62293813     0.75600
O499        O  0.05216126  0.36648481  0.58571489    -0.58200
C500        C  0.17148833  0.40172637  0.62579050     0.75600
C501        C  0.07125698  0.36744924  0.68339674     0.78000
Cd502      Cd  0.10345196  0.40163052  0.62325290     1.37500
O503        O  0.13423260  0.46832277  0.62295298    -0.57000
O504        O  0.10295869  0.39503839  0.68103615    -0.55800
C505        C  0.07204756  0.37345079  0.56127198     0.78000
O506        O  0.05431786  0.35431147  0.65748742    -0.58200
O507        O  0.07539215  0.44021891  0.62378511    -0.56600
O508        O  0.14076151  0.37239874  0.62609736    -0.56600
O509        O  0.10634280  0.39154273  0.56598535    -0.55800
O510        O  0.14149251  0.63891880  0.62363567    -0.57000
C511        C  0.17925459  0.74821387  0.62041865     0.75600
O512        O  0.06357657  0.67018658  0.58353812    -0.58200
C513        C  0.11179345  0.60906030  0.62032697     0.75600
C514        C  0.08539649  0.67699329  0.68272965     0.78000
Cd515      Cd  0.11362843  0.67779016  0.62018625     1.37500
O516        O  0.17982901  0.71907751  0.61709149    -0.57000
O517        O  0.11541973  0.67772932  0.67848843    -0.55800
C518        C  0.08213867  0.67622714  0.55826289     0.78000
O519        O  0.06816672  0.67686217  0.65773367    -0.58200
O520        O  0.14777394  0.74490796  0.62307537    -0.56600
O521        O  0.08304780  0.61110336  0.61686109    -0.56600
O522        O  0.11515436  0.68404518  0.56196912    -0.55800
O523        O  0.95149713  0.37793093  0.86829484    -0.57000
C524        C  0.91499034  0.27177452  0.87378134     0.75600
O525        O  0.02927723  0.34530068  0.83474919    -0.58200
C526        C  0.98117146  0.40810696  0.86812618     0.75600
C527        C  0.01009891  0.34382046  0.93398959     0.78000
Cd528      Cd  0.98087322  0.34059005  0.87082257     1.37500
O529        O  0.91481412  0.30121012  0.87077583    -0.57000
O530        O  0.97886194  0.34024573  0.92887408    -0.55800
C531        C  0.01036877  0.33855138  0.80942095     0.78000
O532        O  0.02813560  0.34501514  0.90951279    -0.58200
O533        O  0.94622864  0.27424279  0.87522257    -0.56600
O534        O  0.01049853  0.40680168  0.86880992    -0.56600
O535        O  0.97771251  0.33175487  0.81279761    -0.55800
O536        O  0.92373502  0.58820208  0.86556207    -0.57000
C537        C  0.98674577  0.54644018  0.86805546     0.75600
O538        O  0.04333518  0.65608190  0.83498260    -0.58200
C539        C  0.92321743  0.61743310  0.86799192     0.75600
C540        C  0.01838345  0.64440380  0.93201928     0.78000
Cd541      Cd  0.98998550  0.61577373  0.86924962     1.37500
O542        O  0.95805593  0.54870706  0.86564121    -0.57000
O543        O  0.98637322  0.61779012  0.92780625    -0.55800
C544        C  0.02504607  0.64955341  0.80937847     0.78000
O545        O  0.03699827  0.65867828  0.90704067    -0.58200
O546        O  0.01655750  0.57612307  0.87096149    -0.56600
O547        O  0.95409936  0.64630192  0.87061493    -0.56600
O548        O  0.99068088  0.62915267  0.81191028    -0.55800
O549        O  0.74677485  0.13347329  0.87787216    -0.57000
C550        C  0.64021817  0.06551475  0.87803703     0.75600
O551        O  0.71767220  0.06885663  0.82185957    -0.58200
C552        C  0.77766981  0.13543390  0.88020140     0.75600
C553        C  0.70983394  0.03772430  0.94251241     0.78000
Cd554      Cd  0.70979191  0.06709367  0.87987903     1.37500
O555        O  0.67095702  0.09447334  0.87657393    -0.57000
O556        O  0.71002959  0.06715947  0.93831521    -0.55800
C557        C  0.71321689  0.03751552  0.81889886     0.78000
O558        O  0.71033354  0.02166066  0.91750075    -0.58200
O559        O  0.64132845  0.03649855  0.87996211    -0.56600
O560        O  0.77706098  0.10559151  0.88305620    -0.56600
O561        O  0.70748205  0.01938382  0.84446663    -0.55800
O562        O  0.46828265  0.13975118  0.87886465    -0.57000
C563        C  0.50386749  0.06789127  0.88000330     0.75600
O564        O  0.39262052  0.02810914  0.91667154    -0.58200
C565        C  0.43892419  0.14107121  0.87852736     0.75600
C566        C  0.41076860  0.04518076  0.81700799     0.78000
Cd567      Cd  0.43856813  0.07357539  0.87947295     1.37500
O568        O  0.50486944  0.09799134  0.88047648    -0.57000
O569        O  0.43805371  0.07646216  0.82152160    -0.55800
C570        C  0.40857708  0.04573847  0.94160801     0.78000
O571        O  0.39467773  0.02700990  0.84182655    -0.58200
O572        O  0.47224627  0.03990657  0.87976539    -0.56600
O573        O  0.40913558  0.11086009  0.87849846    -0.56600
O574        O  0.43738179  0.07607149  0.93740457    -0.55800
O575        O  0.41965143  0.92481322  0.62914701    -0.57000
C576        C  0.31381155  0.88749963  0.62794733     0.75600
O577        O  0.39307705  0.00389241  0.66583543    -0.58200
C578        C  0.45068370  0.95351585  0.62947976     0.75600
C579        C  0.37940620  0.98515266  0.56802239     0.78000
Cd580      Cd  0.38239001  0.95454775  0.62917397     1.37500
O581        O  0.34450670  0.88879653  0.62885370    -0.57000
O582        O  0.38448891  0.00272598  0.59347532    -0.55800
C583        C  0.38289721  0.98433649  0.69077498     0.78000
O584        O  0.37509529  0.95381866  0.57119272    -0.58200
O585        O  0.31484328  0.91765804  0.62846250    -0.56600
O586        O  0.45015635  0.98282350  0.62930767    -0.56600
O587        O  0.37134765  0.95101492  0.68688779    -0.55800
O588        O  0.62573057  0.88088304  0.63273355    -0.57000
C589        C  0.58534729  0.94767401  0.63219917     0.75600
O590        O  0.69894820  0.99443171  0.66809725    -0.58200
C591        C  0.65558234  0.88061027  0.63074397     0.75600
C592        C  0.68183465  0.97557135  0.56926104     0.78000
Cd593      Cd  0.65351387  0.94646784  0.63205448     1.37500
O594        O  0.58577733  0.91829487  0.63317973    -0.57000
O595        O  0.69411095  0.99471562  0.59409721    -0.55800
C596        C  0.68619677  0.97616850  0.69355362     0.78000
O597        O  0.65762347  0.94274086  0.57366897    -0.58200
O598        O  0.61641358  0.97633559  0.63157629    -0.56600
O599        O  0.68487219  0.91124004  0.63002665    -0.56600
O600        O  0.65967846  0.94419266  0.69024270    -0.55800
C601        C  0.48540141  0.95253245  0.63015021    -0.04600
C602        C  0.48387112  0.91891864  0.62969989    -0.32100
C603        C  0.51598006  0.91684012  0.63034828     0.37200
C604        C  0.55068224  0.94877474  0.63161245    -0.05000
C605        C  0.55223136  0.98241712  0.63203490    -0.32000
C606        C  0.52009925  0.98448780  0.63152052     0.37100
H607        H  0.45760557  0.89395044  0.62879811     0.17400
O608        O  0.51294447  0.88334747  0.63001231    -0.59500
H609        H  0.57850574  0.00737958  0.63293983     0.17500
O610        O  0.52310159  0.01795864  0.63218089    -0.59600
H611        H  0.52355017  0.02351636  0.65514667     0.44500
H612        H  0.51139418  0.87708246  0.60714751     0.44400
C613        C  0.39963342  0.03029660  0.78445302    -0.04600
C614        C  0.37670456  0.99281011  0.78032728    -0.32100
C615        C  0.36970619  0.97754404  0.74989543     0.37200
C616        C  0.38581929  0.99983645  0.72281869    -0.05000
C617        C  0.40710987  0.03749193  0.72683583    -0.32000
C618        C  0.41403055  0.05275019  0.75720967     0.37100
H619        H  0.36518239  0.97502968  0.80083972     0.17400
O620        O  0.34802327  0.94067383  0.74712108    -0.59500
H621        H  0.41956511  0.05522436  0.70643570     0.17500
O622        O  0.43593777  0.08960108  0.75993914    -0.59600
H623        H  0.41869220  0.09902529  0.76011406     0.44500
H624        H  0.32312112  0.93638722  0.74195874     0.44400
C625        C  0.39558188  0.03109066  0.97403416    -0.04600
C626        C  0.37336013  0.99354325  0.97851926    -0.32100
C627        C  0.36562080  0.97838054  0.50919033     0.37200
C628        C  0.38051070  0.00079417  0.53608207    -0.05000
C629        C  0.39991018  0.03854492  0.53170226    -0.32000
C630        C  0.40764550  0.05375322  0.00097942     0.37100
H631        H  0.36326646  0.97566131  0.95818933     0.17400
O632        O  0.34446527  0.94147281  0.51251171    -0.59500
H633        H  0.41083799  0.05632404  0.55205117     0.17500
O634        O  0.42725739  0.09076758  0.99758250    -0.59600
H635        H  0.45335525  0.09769097  0.00061514     0.44500
H636        H  0.31897298  0.93659358  0.51518174     0.44400
C637        C  0.70761016  0.02245233  0.97491338    -0.04600
C638        C  0.69290600  0.98496660  0.97903890    -0.32100
C639        C  0.68555631  0.96926107  0.50961072     0.37200
C640        C  0.69368460  0.99124384  0.53681918    -0.05000
C641        C  0.71080071  0.02893971  0.53265344    -0.32000
C642        C  0.71723672  0.04450836  0.00214234     0.37100
H643        H  0.68539518  0.96750525  0.95847504     0.17400
O644        O  0.66910790  0.93230503  0.51244112    -0.59500
H645        H  0.71761134  0.04643508  0.55312131     0.17500
O646        O  0.73272471  0.08137523  0.99926063    -0.59600
H647        H  0.71234997  0.08616169  0.00299806     0.44500
H648        H  0.68962576  0.92744896  0.51541742     0.44400
C649        C  0.71296344  0.02251642  0.78708975    -0.04600
C650        C  0.69730854  0.98494441  0.78343570    -0.32100
C651        C  0.69090829  0.96960235  0.75304247     0.37200
C652        C  0.69977340  0.99184701  0.72558136    -0.05000
C653        C  0.71855721  0.02960770  0.72930257    -0.32000
C654        C  0.72541644  0.04498317  0.75968562     0.37100
H655        H  0.68840753  0.96717015  0.80412136     0.17400
O656        O  0.67459755  0.93268997  0.75052563    -0.59500
H657        H  0.72637605  0.04731587  0.70859698     0.17500
O658        O  0.74300168  0.08198452  0.76217344    -0.59600
H659        H  0.76953911  0.08994553  0.76370094     0.44500
H660        H  0.69525004  0.92796688  0.74840836     0.44400
C661        C  0.53808167  0.06612031  0.87940668    -0.04600
C662        C  0.57171634  0.09851967  0.87595623    -0.32100
C663        C  0.60486204  0.09863436  0.87527837     0.37200
C664        C  0.60511701  0.06579707  0.87787650    -0.05000
C665        C  0.57141578  0.03318426  0.88111094    -0.32000
C666        C  0.53811155  0.03316156  0.88219663     0.37100
H667        H  0.57251638  0.12420322  0.87384734     0.17400
O668        O  0.63690346  0.13130282  0.87279867    -0.59500
H669        H  0.57084316  0.00761543  0.88331067     0.17500
O670        O  0.50595931  0.00085277  0.88621450    -0.59600
H671        H  0.50358079  0.99652113  0.90959215     0.44500
H672        H  0.64108431  0.13607025  0.84958162     0.44400
C673        C  0.88025366  0.23662174  0.87559616    -0.04600
C674        C  0.84676752  0.23628188  0.87448988    -0.32100
C675        C  0.81325176  0.20376180  0.87616577     0.37200
C676        C  0.81265220  0.17053658  0.87918217    -0.05000
C677        C  0.84616058  0.17087728  0.88040844    -0.32000
C678        C  0.87971483  0.20343369  0.87833213     0.37100
H679        H  0.84640295  0.26138223  0.87216862     0.17400
O680        O  0.78134766  0.20489777  0.87411313    -0.59500
H681        H  0.84645661  0.14573600  0.88254921     0.17500
O682        O  0.91168418  0.20233718  0.87900126    -0.59600
H683        H  0.91625866  0.19895971  0.85650140     0.44500
H684        H  0.77612849  0.20889015  0.89625518     0.44400
C685        C  0.98192957  0.44314881  0.86746680    -0.04600
C686        C  0.01575767  0.47542674  0.87068213    -0.32100
C687        C  0.01777650  0.50908489  0.87045013     0.37200
C688        C  0.98546557  0.51110671  0.86758924    -0.05000
C689        C  0.95156336  0.47880960  0.86421995    -0.32000
C690        C  0.94964516  0.44510620  0.86382299     0.37100
H691        H  0.04098052  0.47471540  0.87339847     0.17400
O692        O  0.05157954  0.53976841  0.87341334    -0.59500
H693        H  0.92636460  0.47960094  0.86171501     0.17500
O694        O  0.91604975  0.41436910  0.85991761    -0.59600
H695        H  0.91283011  0.41086755  0.83652176     0.44500
H696        H  0.06127764  0.54611469  0.85136367     0.44400
C697        C  0.07118816  0.67537898  0.71528929    -0.04600
C698        C  0.09371756  0.67987905  0.74182977    -0.32100
C699        C  0.07985222  0.67425827  0.77286670     0.37200
C700        C  0.04253957  0.66300756  0.77783234    -0.05000
C701        C  0.02068944  0.66077507  0.75146408    -0.32000
C702        C  0.03481502  0.66730177  0.72048731     0.37100
H703        H  0.12199504  0.68676228  0.73854372     0.17400
O704        O  0.10240255  0.67733960  0.79788415    -0.59500
H705        H  0.99209355  0.65275554  0.75473109     0.17500
O706        O  0.01206452  0.66356405  0.69544194    -0.59600
H707        H  0.01619886  0.68829002  0.69140358     0.44500
H708        H  0.11321920  0.70274054  0.80519083     0.44400
C709        C  0.06584985  0.67278590  0.52604284    -0.04600
C710        C  0.02747451  0.65360335  0.52220433    -0.32100
C711        C  0.01146033  0.64563747  0.99174046     0.37200
C712        C  0.03389017  0.65689700  0.96436892    -0.05000
C713        C  0.07212410  0.67831226  0.96824338    -0.32000
C714        C  0.08813032  0.68625421  0.49865982     0.37100
H715        H  0.00974408  0.64359653  0.54286260     0.17400
O716        O  0.97386993  0.62699732  0.98904121    -0.59500
H717        H  0.08991416  0.68791350  0.94760664     0.17500
O718        O  0.12560632  0.70743143  0.50130286    -0.59600
H719        H  0.13531264  0.69114516  0.49656001     0.44500
H720        H  0.96627635  0.60118388  0.99266660     0.44400
C721        C  0.21358661  0.78406278  0.62158746    -0.04600
C722        C  0.21200617  0.81592937  0.62540552    -0.32100
C723        C  0.24425634  0.84991251  0.62706776     0.37200
C724        C  0.27890854  0.85238230  0.62591774    -0.05000
C725        C  0.28036992  0.82058235  0.62188925    -0.32000
C726        C  0.24831356  0.78685922  0.61940060     0.37100
H727        H  0.18570547  0.81460893  0.62690658     0.17400
O728        O  0.24147091  0.88037017  0.63000273    -0.59500
H729        H  0.30658986  0.82174829  0.62026527     0.17500
O730        O  0.25143339  0.75692327  0.61411867    -0.59600
H731        H  0.25475062  0.74886040  0.63558314     0.44500
H732        H  0.24067089  0.88826875  0.60780223     0.44400
C733        C  0.05485740  0.35310104  0.71505287    -0.04600
C734        C  0.07809056  0.36259617  0.74178426    -0.32100
C735        C  0.06386987  0.35590876  0.77267096     0.37200
C736        C  0.02570228  0.33997472  0.77737456    -0.05000
C737        C  0.00224862  0.32805123  0.75060113    -0.32000
C738        C  0.01651753  0.33408516  0.71963876     0.37100
H739        H  0.10764687  0.37670465  0.73877955     0.17400
O740        O  0.08785722  0.36753869  0.79794243    -0.59500
H741        H  0.97276454  0.31522018  0.75356801     0.17500
O742        O  0.99283747  0.32398657  0.69416400    -0.59600
H743        H  0.98666528  0.29885230  0.68928817     0.44500
H744        H  0.09107195  0.34667865  0.80363818     0.44400
C745        C  0.02504290  0.34775240  0.96679087    -0.04600
C746        C  0.06273784  0.36099877  0.97133387    -0.32100
C747        C  0.07829110  0.36849852  0.50194006     0.37200
C748        C  0.05601710  0.36245430  0.52886794    -0.05000
C749        C  0.01804460  0.34778017  0.52439841    -0.32000
C750        C  0.00253519  0.34048734  0.99379310     0.37100
H751        H  0.08054177  0.36659948  0.95101456     0.17400
O752        O  0.11532382  0.38169709  0.50516974    -0.59500
H753        H  0.00026949  0.34266495  0.54465472     0.17500
O754        O  0.96525198  0.32583266  0.99064747    -0.59600
H755        H  0.96097497  0.34651055  0.99270194     0.44500
H756        H  0.12716838  0.40787037  0.49978199     0.44400
C757        C  0.10637010  0.50536990  0.62194093    -0.04600
C758        C  0.14002797  0.53745167  0.62667143    -0.32100
C759        C  0.14226169  0.57125164  0.62612263     0.37200
C760        C  0.11046354  0.57363511  0.62059449    -0.05000
C761        C  0.07682669  0.54151926  0.61535168    -0.32000
C762        C  0.07459307  0.50766366  0.61597101     0.37100
H763        H  0.16487485  0.53643107  0.63103154     0.17400
O764        O  0.17586166  0.60177022  0.63065722    -0.59500
H765        H  0.05205146  0.54255959  0.61063498     0.17500
O766        O  0.04145106  0.47720879  0.60963613    -0.59600
H767        H  0.02862287  0.46966032  0.63042970     0.44500
H768        H  0.17911080  0.60427659  0.65411508     0.44400
C769        C  0.65574760  0.84610170  0.62911336    -0.04600
C770        C  0.62250965  0.81327227  0.63285174    -0.32100
C771        C  0.62123081  0.78003886  0.63101744     0.37200
C772        C  0.65370554  0.77903724  0.62554527    -0.05000
C773        C  0.68698297  0.81186357  0.62176906    -0.32000
C774        C  0.68814540  0.84514518  0.62313996     0.37100
H775        H  0.59716542  0.81321447  0.63713275     0.17400
O776        O  0.58789412  0.74877047  0.63412955    -0.59500
H777        H  0.71223093  0.81181273  0.61728540     0.17500
O778        O  0.72106787  0.87643253  0.61831226    -0.59600
H779        H  0.72228306  0.88097897  0.59498553     0.44500
H780        H  0.58454872  0.74391665  0.65742010     0.43200
C781        C  0.20667653  0.40189283  0.62752664    -0.04600
C782        C  0.20664576  0.36930851  0.62354105    -0.32100
C783        C  0.23944069  0.36856504  0.62412286     0.37200
C784        C  0.27326812  0.40089138  0.62851013    -0.05000
C785        C  0.27322383  0.43334537  0.63338802    -0.32000
C786        C  0.24040874  0.43407867  0.63287990     0.37100
H787        H  0.18108385  0.34421747  0.61956392     0.17400
O788        O  0.23801288  0.33614599  0.61965083    -0.59500
H789        H  0.29877442  0.45845283  0.63740211     0.17500
O790        O  0.24166156  0.46627493  0.63831743    -0.59600
H791        H  0.24842983  0.47935650  0.61752358     0.44500
H792        H  0.23424049  0.32507560  0.64121825     0.44400
C793        C  0.48059274  0.50690496  0.61882777    -0.04600
C794        C  0.48008133  0.53927129  0.62251990    -0.32100
C795        C  0.51254981  0.57291996  0.62106818     0.37200
C796        C  0.54644439  0.57464258  0.61597990    -0.05000
C797        C  0.54679018  0.54227689  0.61158596    -0.32000
C798        C  0.51432542  0.50868964  0.61282267     0.37100
H799        H  0.45445948  0.53853797  0.62713589     0.17400
O800        O  0.51087154  0.60372905  0.62593631    -0.59500
H801        H  0.57241989  0.54290988  0.60729321     0.17500
O802        O  0.51605592  0.47786337  0.60822919    -0.59600
H803        H  0.50976035  0.47179079  0.58542100     0.44500
H804        H  0.50579087  0.61057651  0.60461201     0.44400
C805        C  0.88837938  0.61782370  0.86828791    -0.04600
C806        C  0.88889485  0.65009116  0.87545405    -0.32100
C807        C  0.85630443  0.65113387  0.87674070     0.37200
C808        C  0.82231033  0.61941562  0.87112027    -0.05000
C809        C  0.82183683  0.58717773  0.86390759    -0.32000
C810        C  0.85439649  0.58623508  0.86219361     0.37100
H811        H  0.91465409  0.67466112  0.88033023     0.17400
O812        O  0.85806859  0.68312042  0.88423799    -0.59500
H813        H  0.79609088  0.56248294  0.85929282     0.17500
O814        O  0.85249496  0.55416073  0.85473583    -0.59600
H815        H  0.85310649  0.55390764  0.83112981     0.44500
H816        H  0.86192119  0.69614529  0.86363046     0.44400
C817        C  0.70952945  0.65325528  0.77686345    -0.04600
C818        C  0.69040580  0.67201857  0.77254299    -0.32100
C819        C  0.68102993  0.67839422  0.74199551     0.37200
C820        C  0.69067350  0.66595220  0.71476092    -0.05000
C821        C  0.71099813  0.64834302  0.71896985    -0.32000
C822        C  0.72056728  0.64212728  0.74959060     0.37100
H823        H  0.68170994  0.68098634  0.79299488     0.17400
O824        O  0.66186564  0.69639224  0.73917965    -0.59500
H825        H  0.71888876  0.63865428  0.69849219     0.17500
O826        O  0.74012807  0.62453249  0.75249465    -0.59600
H827        H  0.76631148  0.64407201  0.75288711     0.44500
H828        H  0.68083873  0.72219463  0.73581253     0.44400
C829        C  0.69698835  0.67714007  0.52589911    -0.04600
C830        C  0.72045235  0.66288050  0.52312997    -0.32100
C831        C  0.72942790  0.65538143  0.99320258     0.37200
C832        C  0.71494189  0.66214483  0.96522951    -0.05000
C833        C  0.69368624  0.67881485  0.96784511    -0.32000
C834        C  0.68462262  0.68626074  0.49777281     0.37100
H835        H  0.73073002  0.65606166  0.54427802     0.17400
O836        O  0.75145351  0.64035913  0.99167694    -0.59500
H837        H  0.68249019  0.68451209  0.94666587     0.17500
O838        O  0.66236238  0.70102042  0.49915152    -0.59600
H839        H  0.67923286  0.72760637  0.49721705     0.44500
H840        H  0.77695009  0.66123590  0.99164594     0.44400
C841        C  0.43930602  0.17596847  0.87830164    -0.04600
C842        C  0.40598015  0.17595742  0.87972383    -0.32100
C843        C  0.40550184  0.20848196  0.87988815     0.37200
C844        C  0.43880555  0.24192623  0.87887486    -0.05000
C845        C  0.47205398  0.24190717  0.87722750    -0.32000
C846        C  0.47252809  0.20947432  0.87666194     0.37100
H847        H  0.38006938  0.15061654  0.88072894     0.17400
O848        O  0.37227997  0.20709622  0.88057573    -0.59500
H849        H  0.49801003  0.26721023  0.87614075     0.17500
O850        O  0.50575680  0.21103766  0.87465240    -0.59600
H851        H  0.51077010  0.21205696  0.85146092     0.44500
H852        H  0.36703110  0.20760476  0.90349392     0.44400
C853        C  0.40093959  0.35146179  0.78480463    -0.04600
C854        C  0.38632559  0.37433725  0.78050940    -0.32100
C855        C  0.37845588  0.38227068  0.74998324     0.37200
C856        C  0.38484274  0.36696344  0.72286402    -0.05000
C857        C  0.39751837  0.34246486  0.72731675    -0.32000
C858        C  0.40561528  0.33472259  0.75787656     0.37100
H859        H  0.38235607  0.38739856  0.80081035     0.17400
O860        O  0.36582570  0.40611725  0.74699346    -0.59500
H861        H  0.40244361  0.33017955  0.70695057     0.17500
O862        O  0.41908826  0.31156171  0.76095974    -0.59600
H863        H  0.39711241  0.28716245  0.76389388     0.44500
H864        H  0.33868502  0.39099397  0.74882864     0.44400
C865        C  0.38156144  0.35969552  0.53388998    -0.04600
C866        C  0.36996029  0.37076895  0.50667245    -0.32100
C867        C  0.37794488  0.36418013  0.97601834     0.37200
C868        C  0.39894594  0.34726348  0.97208476    -0.05000
C869        C  0.40886455  0.33444398  0.99920316    -0.32000
C870        C  0.39963167  0.33981902  0.52987145     0.37100
H871        H  0.35553690  0.38561068  0.50912438     0.17400
O872        O  0.36737681  0.37679074  0.95021163    -0.59500
H873        H  0.42447313  0.32079104  0.99668112     0.17500
O874        O  0.41056599  0.32761133  0.55571977    -0.59600
H875        H  0.39104757  0.30188953  0.55853463     0.44500
H876        H  0.34220717  0.35692175  0.94483923     0.44400
C877        C  0.54831680  0.44687485  0.87953908    -0.04600
C878        C  0.54833047  0.47960140  0.87638553    -0.32100
C879        C  0.58123004  0.51277151  0.87550809     0.37200
C880        C  0.61515697  0.51382448  0.87816799    -0.05000
C881        C  0.61516864  0.48111019  0.88202756    -0.32000
C882        C  0.58216219  0.44786089  0.88284036     0.37100
H883        H  0.52268825  0.47958029  0.87408992     0.17400
O884        O  0.57973663  0.54398059  0.87223420    -0.59500
H885        H  0.64084773  0.48120141  0.88430387     0.17500
O886        O  0.58343435  0.41660151  0.88678907    -0.59600
H887        H  0.58197597  0.41221748  0.91015811     0.44500
H888        H  0.57692005  0.54660143  0.84901848     0.44400
loop_ 
_geom_bond_atom_site_label_1 
_geom_bond_atom_site_label_2 
_geom_bond_distance 
_geom_bond_site_symmetry_2 
_ccdc_geom_bond_type 
O1            C4   1.266       .  A
O1           Cd6   2.427       .  S
C2           O11   1.264       .  A
C2            O7   1.264       .  A
C2          C433   1.479       .  S
O3            C9   1.267       .  A
O3           Cd6   2.480       .  S
C4           O12   1.267       .  A
C4          C400   1.479       .  S
C5           O10   1.267       .  A
C5            O8   1.264       .  A
C5          C424   1.482       .  S
Cd6          O13   2.462       .  S
Cd6          O12   2.452       .  S
Cd6          O11   2.450       .  S
Cd6           O7   2.462       .  S
Cd6          O10   2.475       .  S
Cd6           O8   2.461       .  S
C9           O13   1.263       .  A
C9          C409   1.483       .  S
O14          C17   1.266       .  A
O14         Cd19   2.422       .  S
C15          O24   1.263       .  A
C15          O20   1.264       .  A
C15         C436   1.480       .  S
O16          C22   1.267       .  A
O16         Cd19   2.489       .  S
C17          O25   1.268       .  A
C17         C364   1.477       .  S
C18          O23   1.263       .  A
C18          O21   1.268       .  A
C18         C373   1.489       .  S
Cd19         O26   2.461       .  S
Cd19         O25   2.452       .  S
Cd19         O24   2.440       .  S
Cd19         O20   2.477       .  S
Cd19         O23   2.468       .  S
Cd19         O21   2.495       .  S
C22          O26   1.264       .  A
C22         C388   1.483       .  S
O27          C30   1.265       .  A
O27         Cd32   2.440       .  S
C28          O37   1.265       .  A
C28          O33   1.264       .  A
C28         C349   1.478       .  S
O29          C35   1.268       .  A
O29         Cd32   2.494       .  S
C30          O38   1.267       .  A
C30         C340   1.480       .  S
C31          O36   1.268       .  A
C31          O34   1.264       .  A
C31         C421   1.484       .  S
Cd32         O39   2.457       .  S
Cd32         O38   2.454       .  S
Cd32         O37   2.463       .  S
Cd32         O33   2.453       .  S
Cd32         O36   2.498       .  S
Cd32         O34   2.450       .  S
C35          O39   1.263       .  A
C35         C412   1.486       .  S
O40          C43   1.265       .  A
O40         Cd45   2.436       .  S
C41          O50   1.264       .  A
C41          O46   1.264       .  A
C41         C352   1.480       .  S
O42          C48   1.268       .  A
O42         Cd45   2.490       .  S
C43          O51   1.268       .  A
C43         C328   1.481       .  S
C44          O49   1.268       .  A
C44          O47   1.263       .  A
C44         C376   1.490       .  S
Cd45         O52   2.471       .  S
Cd45         O51   2.467       .  S
Cd45         O50   2.447       .  S
Cd45         O46   2.474       .  S
Cd45         O49   2.516       .  S
Cd45         O47   2.459       .  S
C48          O52   1.264       .  A
C48         C385   1.488       .  S
O53          C56   1.266       .  A
O53         Cd58   2.444       .  S
C54          O63   1.263       .  A
C54          O59   1.264       .  A
C54         C313   1.482       .  S
O55          C61   1.265       .  A
O55         Cd58   2.475       .  S
C56          O64   1.269       .  A
C56         C337   1.480       .  S
C57          O62   1.266       .  A
C57          O60   1.263       .  A
C57         C289   1.479       .  S
Cd58         O65   2.462       .  S
Cd58         O64   2.454       .  S
Cd58         O63   2.467       .  S
Cd58         O59   2.465       .  S
Cd58         O62   2.490       .  S
Cd58         O60   2.437       .  S
C61          O65   1.264       .  A
C61         C304   1.485       .  S
O66          C69   1.266       .  A
O66         Cd71   2.473       .  S
C67          O76   1.267       .  A
C67          O72   1.267       .  A
C67         C277   1.485       .  S
O68          C74   1.269       .  A
O68         Cd71   2.485       .  S
C69          O77   1.265       .  A
C69         C316   1.486       .  S
C70          O75   1.268       .  A
C70          O73   1.264       .  A
C70         C253   1.484       .  S
Cd71         O78   2.452       .  S
Cd71         O77   2.470       .  S
Cd71         O76   2.480       .  S
Cd71         O72   2.439       .  S
Cd71         O75   2.477       .  S
Cd71         O73   2.447       .  S
C74          O78   1.265       .  A
C74         C265   1.485       .  S
O79          C82   1.265       .  A
O79         Cd84   2.465       .  S
C80          O89   1.267       .  A
C80          O85   1.266       .  A
C80         C229   1.478       .  S
O81          C87   1.268       .  A
O81         Cd84   2.476   1_455  S
C82          O90   1.265   1_655  A
C82         C241   1.481       .  S
C83          O88   1.269       .  A
C83          O86   1.263   1_455  A
C83         C301   1.484       .  S
Cd84         O91   2.461       .  S
Cd84         O90   2.450   1_655  S
Cd84         O89   2.454       .  S
Cd84         O85   2.420       .  S
Cd84         O88   2.491   1_655  S
Cd84         O86   2.438       .  S
C87          O91   1.264   1_455  A
C87         C292   1.485       .  S
O92          C95   1.266       .  A
O92         Cd97   2.426       .  S
C93         O102   1.263   1_655  A
C93          O98   1.264       .  A
C93         C244   1.484       .  S
O94         C100   1.265       .  A
O94         Cd97   2.487   1_455  S
C95         O103   1.268       .  A
C95         C361   1.477       .  S
C96         O101   1.266       .  A
C96          O99   1.264   1_455  A
C96         C268   1.485       .  S
Cd97        O104   2.463       .  S
Cd97        O103   2.447       .  S
Cd97        O102   2.457   1_655  S
Cd97         O98   2.483       .  S
Cd97        O101   2.480   1_655  S
Cd97         O99   2.469       .  S
C100        O104   1.263   1_455  A
C100        C256   1.483       .  S
O105        C108   1.265       .  A
O105       Cd110   2.453       .  S
C106        O115   1.266       .  A
C106        O111   1.263       .  A
C106        C220   1.485       .  S
O107        C113   1.263       .  A
O107       Cd110   2.456       .  S
C108        O116   1.267       .  A
C108        C232   1.481       .  S
C109        O114   1.267       .  A
C109        O112   1.264       .  A
C109        C193   1.484       .  S
Cd110       O117   2.499       .  S
Cd110       O116   2.460       .  S
Cd110       O115   2.496       .  S
Cd110       O111   2.447       .  S
Cd110       O114   2.496       .  S
Cd110       O112   2.452       .  S
C113        O117   1.267       .  A
C113        C205   1.486       .  S
O118        C121   1.267       .  A
O118       Cd123   2.448       .  S
C119        O128   1.264       .  A
C119        O124   1.266       .  A
C119        C217   1.482       .  S
O120        C126   1.269       .  A
O120       Cd123   2.480       .  S
C121        O129   1.268       .  A
C121        C397   1.483       .  S
C122        O127   1.269       .  A
C122        O125   1.263       .  A
C122        C169   1.483       .  S
Cd123       O130   2.437       .  S
Cd123       O129   2.464       .  S
Cd123       O128   2.479       .  S
Cd123       O124   2.440       .  S
Cd123       O127   2.487       .  S
Cd123       O125   2.434       .  S
C126        O130   1.263       .  A
C126        C181   1.480       .  S
O131        C134   1.264       .  A
O131       Cd136   2.468       .  S
C132        O141   1.268       .  A
C132        O137   1.267       .  A
C132        C280   1.482       .  S
O133        C139   1.266   1_545  A
O133       Cd136   2.475   1_545  S
C134        O142   1.264       .  A
C134        C157   1.485       .  S
C135        O140   1.263       .  A
C135        O138   1.266   1_565  A
C135        C184   1.481   1_565  S
Cd136       O143   2.459       .  S
Cd136       O142   2.477       .  S
Cd136       O141   2.462       .  S
Cd136       O137   2.433       .  S
Cd136       O140   2.448       .  S
Cd136       O138   2.497   1_565  S
C139        O143   1.263       .  A
C139        C172   1.483       .  S
O144        C147   1.267       .  A
O144       Cd149   2.432       .  S
C145        O154   1.264       .  A
C145        O150   1.265       .  A
C145        C160   1.485       .  S
O146        C152   1.267       .  A
O146       Cd149   2.493       .  S
C147        O155   1.268       .  A
C147        C325   1.481       .  S
C148        O153   1.264       .  A
C148        O151   1.268       .  A
C148        C196   1.485       .  S
Cd149       O156   2.459       .  S
Cd149       O155   2.456       .  S
Cd149       O154   2.467       .  S
Cd149       O150   2.477       .  S
Cd149       O153   2.471       .  S
Cd149       O151   2.475       .  S
C152        O156   1.263       .  A
C152        C208   1.484       .  S
C157        C158   1.405       .  A
C157        C162   1.411       .  A
C158        C159   1.400       .  A
C158        H163   1.083       .  S
C159        C160   1.411       .  A
C159        O164   1.371       .  S
C160        C161   1.406       .  A
C161        C162   1.401       .  A
C161        H165   1.083   1_565  S
C162        O166   1.371   1_565  S
O164        H168   0.992       .  S
O166        H167   0.993       .  S
C169        C170   1.404   1_545  A
C169        C174   1.412       .  A
C170        C171   1.401       .  A
C170        H175   1.083       .  S
C171        C172   1.413       .  A
C171        O176   1.371       .  S
C172        C173   1.403   1_565  A
C173        C174   1.399       .  A
C173        H177   1.083       .  S
C174        O178   1.371       .  S
O176        H180   0.992       .  S
O178        H179   0.993       .  S
C181        C182   1.402   1_545  A
C181        C186   1.412       .  A
C182        C627   1.399       .  A
C182        H187   1.083       .  S
C183        C184   1.411   1_565  A
C183        C626   1.399   1_554  A
C183        O188   1.371       .  S
C184        C185   1.403       .  A
C185        C630   1.402       .  A
C185        H189   1.084       .  S
C186        C629   1.402       .  A
C186        O190   1.372       .  S
O188        H192   0.993       .  S
O190        H191   0.992       .  S
C193        C194   1.405   1_545  A
C193        C198   1.411       .  A
C194        C639   1.403       .  A
C194        H199   1.084       .  S
C195        C196   1.413       .  A
C195        C638   1.403   1_554  A
C195        O200   1.371       .  S
C196        C197   1.403   1_565  A
C197        C642   1.400       .  A
C197        H201   1.083       .  S
C198        C641   1.400       .  A
C198        O202   1.372       .  S
O200        H204   0.992       .  S
O202        H203   0.992       .  S
C205        C206   1.404   1_545  A
C205        C210   1.413       .  A
C206        C207   1.402       .  A
C206        H211   1.083       .  S
C207        C208   1.412       .  A
C207        O212   1.371       .  S
C208        C209   1.404   1_565  A
C209        C210   1.401       .  A
C209        H213   1.083       .  S
C210        O214   1.371       .  S
O212        H216   0.993       .  S
O214        H215   0.993       .  S
C217        C218   1.402       .  A
C217        C222   1.412       .  A
C218        C219   1.395       .  A
C218        H223   1.083       .  S
C219        C220   1.411       .  A
C219        O224   1.371       .  S
C220        C221   1.407       .  A
C221        C222   1.404       .  A
C221        H225   1.083       .  S
C222        O226   1.372       .  S
O224        H228   0.992       .  S
O226        H227   0.993   1_545  S
C229        C230   1.404       .  A
C229        C234   1.410       .  A
C230        C231   1.396       .  A
C230        H235   1.084       .  S
C231        C232   1.411       .  A
C231        O236   1.371       .  S
C232        C233   1.405       .  A
C233        C234   1.399       .  A
C233        H237   1.083       .  S
C234        O238   1.371       .  S
O236        H240   0.993       .  S
O238        H239   0.992       .  S
C241        C242   1.404   1_655  A
C241        C246   1.411       .  A
C242        C243   1.397       .  A
C242        H247   1.083       .  S
C243        C244   1.411   1_455  A
C243        O248   1.371       .  S
C244        C245   1.406       .  A
C245        C246   1.401       .  A
C245        H249   1.083       .  S
C246        O250   1.372       .  S
O248        H252   0.993       .  S
O250        H251   0.993       .  S
C253        C254   1.407       .  A
C253        C258   1.410       .  A
C254        C255   1.400       .  A
C254        H259   1.084       .  S
C255        C256   1.410       .  A
C255        O260   1.371       .  S
C256        C257   1.406       .  A
C257        C258   1.400       .  A
C257        H261   1.083   1_455  S
C258        O262   1.371       .  S
O260        H264   0.993       .  S
O262        H263   0.993       .  S
C265        C266   1.405       .  A
C265        C270   1.412   1_554  A
C266        C711   1.403   1_554  A
C266        H271   1.083       .  S
C267        C268   1.412       .  A
C267        C710   1.403       .  A
C267        O272   1.372   1_455  S
C268        C269   1.404       .  A
C269        C714   1.401       .  A
C269        H273   1.083       .  S
C270        C713   1.401       .  A
C270        O274   1.372   1_556  S
O272        H276   0.991       .  S
O274        H275   0.992   1_554  S
C277        C278   1.408       .  A
C277        C282   1.411       .  A
C278        C279   1.404       .  A
C278        H283   1.083       .  S
C279        C280   1.411       .  A
C279        O284   1.372       .  S
C280        C281   1.403       .  A
C281        C282   1.396       .  A
C281        H285   1.083       .  S
C282        O286   1.371       .  S
O284        H288   0.993       .  S
O286        H287   0.994       .  S
C289        C290   1.404       .  A
C289        C294   1.409       .  A
C290        C291   1.398       .  A
C290        H295   1.084       .  S
C291        C292   1.410       .  A
C291        O296   1.371       .  S
C292        C293   1.408       .  A
C293        C294   1.402       .  A
C293        H297   1.083   1_455  S
C294        O298   1.372   1_455  S
O296        H300   0.993       .  S
O298        H299   0.993       .  S
C301        C302   1.403       .  A
C301        C306   1.413       .  A
C302        C747   1.401       .  A
C302        H307   1.083       .  S
C303        C304   1.412       .  A
C303        C746   1.401   1_554  A
C303        O308   1.372       .  S
C304        C305   1.405       .  A
C305        C750   1.401   1_554  A
C305        H309   1.084       .  S
C306        C749   1.401       .  A
C306        O310   1.372   1_455  S
O308        H312   0.992   1_554  S
O310        H311   0.992       .  S
C313        C314   1.404       .  A
C313        C318   1.411       .  A
C314        C315   1.399       .  A
C314        H319   1.083       .  S
C315        C316   1.411       .  A
C315        O320   1.371       .  S
C316        C317   1.407       .  A
C317        C318   1.402       .  A
C317        H321   1.083       .  S
C318        O322   1.372       .  S
O320        H324   0.992       .  S
O322        H323   0.992       .  S
C325        C326   1.404       .  A
C325        C330   1.411       .  A
C326        C327   1.397       .  A
C326        H331   1.084       .  S
C327        C328   1.412       .  A
C327        O332   1.372       .  S
C328        C329   1.405       .  A
C329        C330   1.400       .  A
C329        H333   1.083       .  S
C330        O334   1.371       .  S
O332        H336   0.993       .  S
O334        H335   0.992       .  S
C337        C338   1.404       .  A
C337        C342   1.411       .  A
C338        C339   1.398       .  A
C338        H343   1.083       .  S
C339        C340   1.410       .  A
C339        O344   1.371       .  S
C340        C341   1.405       .  A
C341        C342   1.399       .  A
C341        H345   1.084       .  S
C342        O346   1.372       .  S
O344        H348   0.992       .  S
O346        H347   0.994       .  S
C349        C350   1.405       .  A
C349        C354   1.410       .  A
C350        C351   1.399       .  A
C350        H355   1.084       .  S
C351        C352   1.411       .  A
C351        O356   1.371       .  S
C352        C353   1.405       .  A
C353        C354   1.397       .  A
C353        H357   1.083       .  S
C354        O358   1.372       .  S
O356        H360   0.993       .  S
O358        H359   0.993       .  S
C361        C362   1.404       .  A
C361        C366   1.410       .  A
C362        C363   1.398       .  A
C362        H367   1.083       .  S
C363        C364   1.410       .  A
C363        O368   1.371       .  S
C364        C365   1.404       .  A
C365        C366   1.395       .  A
C365        H369   1.084       .  S
C366        O370   1.372       .  S
O368        H372   0.992       .  S
O370        H371   0.992       .  S
C373        C374   1.404       .  A
C373        C378   1.414       .  A
C374        C375   1.401       .  A
C374        H379   1.083       .  S
C375        C376   1.413       .  A
C375        O380   1.371       .  S
C376        C377   1.405       .  A
C377        C378   1.405       .  A
C377        H381   1.083       .  S
C378        O382   1.371       .  S
O380        H384   0.992       .  S
O382        H383   0.993       .  S
C385        C386   1.405       .  A
C385        C390   1.414   1_554  A
C386        C831   1.402   1_554  A
C386        H391   1.083       .  S
C387        C388   1.411       .  A
C387        C830   1.402       .  A
C387        O392   1.371       .  S
C388        C389   1.403       .  A
C389        C834   1.402       .  A
C389        H393   1.084       .  S
C390        C833   1.402       .  A
C390        O394   1.371       .  S
O392        H396   0.992       .  S
O394        H395   0.993       .  S
C397        C398   1.406       .  A
C397        C402   1.411       .  A
C398        C399   1.400       .  A
C398        H403   1.083       .  S
C399        C400   1.411       .  A
C399        O404   1.372       .  S
C400        C401   1.404       .  A
C401        C402   1.397       .  A
C401        H405   1.084       .  S
C402        O406   1.371       .  S
O404        H408   0.992       .  S
O406        H407   0.994       .  S
C409        C410   1.403       .  A
C409        C414   1.412       .  A
C410        C411   1.400       .  A
C410        H415   1.084       .  S
C411        C412   1.413       .  A
C411        O416   1.371       .  S
C412        C413   1.405       .  A
C413        C414   1.402       .  A
C413        H417   1.083       .  S
C414        O418   1.371       .  S
O416        H420   0.993       .  S
O418        H419   0.992       .  S
C421        C422   1.406       .  A
C421        C426   1.410       .  A
C422        C867   1.400   1_554  A
C422        H427   1.084       .  S
C423        C424   1.409       .  A
C423        C866   1.400       .  A
C423        O428   1.371       .  S
C424        C425   1.406       .  A
C425        C870   1.403       .  A
C425        H429   1.084       .  S
C426        C869   1.403   1_554  A
C426        O430   1.371       .  S
O428        H432   0.994       .  S
O430        H431   0.993       .  S
C433        C434   1.403       .  A
C433        C438   1.411       .  A
C434        C435   1.396       .  A
C434        H439   1.083       .  S
C435        C436   1.411       .  A
C435        O440   1.372       .  S
C436        C437   1.406       .  A
C437        C438   1.400       .  A
C437        H441   1.083       .  S
C438        O442   1.372       .  S
O440        H444   0.992       .  S
O442        H443   0.993       .  S
O445        C448   1.266       .  A
O445       Cd450   2.427       .  S
C446        O455   1.264       .  A
C446        O451   1.264       .  A
C446        C877   1.479       .  S
O447        C453   1.267       .  A
O447       Cd450   2.480       .  S
C448        O456   1.267       .  A
C448        C844   1.479       .  S
C449        O454   1.267       .  A
C449        O452   1.264       .  A
C449        C868   1.482       .  S
Cd450       O457   2.462       .  S
Cd450       O456   2.452       .  S
Cd450       O455   2.450       .  S
Cd450       O451   2.462       .  S
Cd450       O454   2.475       .  S
Cd450       O452   2.461       .  S
C453        O457   1.263       .  A
C453        C853   1.483       .  S
O458        C461   1.266       .  A
O458       Cd463   2.422       .  S
C459        O468   1.263       .  A
C459        O464   1.264       .  A
C459        C880   1.480       .  S
O460        C466   1.267       .  A
O460       Cd463   2.489       .  S
C461        O469   1.268       .  A
C461        C808   1.477       .  S
C462        O467   1.263       .  A
C462        O465   1.268       .  A
C462        C817   1.489       .  S
Cd463       O470   2.461       .  S
Cd463       O469   2.452       .  S
Cd463       O468   2.440       .  S
Cd463       O464   2.477       .  S
Cd463       O467   2.468       .  S
Cd463       O465   2.495       .  S
C466        O470   1.264       .  A
C466        C832   1.483       .  S
O471        C474   1.265       .  A
O471       Cd476   2.440       .  S
C472        O481   1.265       .  A
C472        O477   1.264       .  A
C472        C793   1.478       .  S
O473        C479   1.268       .  A
O473       Cd476   2.494       .  S
C474        O482   1.267       .  A
C474        C784   1.480       .  S
C475        O480   1.268       .  A
C475        O478   1.264       .  A
C475        C865   1.484       .  S
Cd476       O483   2.457       .  S
Cd476       O482   2.454       .  S
Cd476       O481   2.463       .  S
Cd476       O477   2.453       .  S
Cd476       O480   2.498       .  S
Cd476       O478   2.450       .  S
C479        O483   1.263       .  A
C479        C856   1.486       .  S
O484        C487   1.265       .  A
O484       Cd489   2.436       .  S
C485        O494   1.264       .  A
C485        O490   1.264       .  A
C485        C796   1.480       .  S
O486        C492   1.268       .  A
O486       Cd489   2.490       .  S
C487        O495   1.268       .  A
C487        C772   1.481       .  S
C488        O493   1.268       .  A
C488        O491   1.263       .  A
C488        C820   1.490       .  S
Cd489       O496   2.471       .  S
Cd489       O495   2.467       .  S
Cd489       O494   2.447       .  S
Cd489       O490   2.474       .  S
Cd489       O493   2.516       .  S
Cd489       O491   2.459       .  S
C492        O496   1.264       .  A
C492        C829   1.488       .  S
O497        C500   1.266       .  A
O497       Cd502   2.444       .  S
C498        O507   1.263       .  A
C498        O503   1.264       .  A
C498        C757   1.482       .  S
O499        C505   1.265       .  A
O499       Cd502   2.475       .  S
C500        O508   1.269       .  A
C500        C781   1.480       .  S
C501        O506   1.266       .  A
C501        O504   1.263       .  A
C501        C733   1.479       .  S
Cd502       O509   2.462       .  S
Cd502       O508   2.454       .  S
Cd502       O507   2.467       .  S
Cd502       O503   2.465       .  S
Cd502       O506   2.490       .  S
Cd502       O504   2.437       .  S
C505        O509   1.264       .  A
C505        C748   1.485       .  S
O510        C513   1.266       .  A
O510       Cd515   2.473       .  S
C511        O520   1.267       .  A
C511        O516   1.267       .  A
C511        C721   1.485       .  S
O512        C518   1.269       .  A
O512       Cd515   2.485       .  S
C513        O521   1.265       .  A
C513        C760   1.486       .  S
C514        O519   1.268       .  A
C514        O517   1.264       .  A
C514        C697   1.484       .  S
Cd515       O522   2.452       .  S
Cd515       O521   2.470       .  S
Cd515       O520   2.480       .  S
Cd515       O516   2.439       .  S
Cd515       O519   2.477       .  S
Cd515       O517   2.447       .  S
C518        O522   1.265       .  A
C518        C709   1.485       .  S
O523        C526   1.265       .  A
O523       Cd528   2.465       .  S
C524        O533   1.267       .  A
C524        O529   1.266       .  A
C524        C673   1.478       .  S
O525        C531   1.268       .  A
O525       Cd528   2.476   1_455  S
C526        O534   1.265   1_655  A
C526        C685   1.481       .  S
C527        O532   1.269       .  A
C527        O530   1.263   1_455  A
C527        C745   1.484       .  S
Cd528       O535   2.461       .  S
Cd528       O534   2.450   1_655  S
Cd528       O533   2.454       .  S
Cd528       O529   2.420       .  S
Cd528       O532   2.491   1_655  S
Cd528       O530   2.438       .  S
C531        O535   1.264   1_455  A
C531        C736   1.485       .  S
O536        C539   1.266       .  A
O536       Cd541   2.426       .  S
C537        O546   1.263   1_655  A
C537        O542   1.264       .  A
C537        C688   1.484       .  S
O538        C544   1.265       .  A
O538       Cd541   2.487   1_455  S
C539        O547   1.268       .  A
C539        C805   1.477       .  S
C540        O545   1.266       .  A
C540        O543   1.264   1_455  A
C540        C712   1.485       .  S
Cd541       O548   2.463       .  S
Cd541       O547   2.447       .  S
Cd541       O546   2.457   1_655  S
Cd541       O542   2.483       .  S
Cd541       O545   2.480   1_655  S
Cd541       O543   2.469       .  S
C544        O548   1.263   1_455  A
C544        C700   1.483       .  S
O549        C552   1.265       .  A
O549       Cd554   2.453       .  S
C550        O559   1.266       .  A
C550        O555   1.263       .  A
C550        C664   1.485       .  S
O551        C557   1.263       .  A
O551       Cd554   2.456       .  S
C552        O560   1.267       .  A
C552        C676   1.481       .  S
C553        O558   1.267       .  A
C553        O556   1.264       .  A
C553        C637   1.484       .  S
Cd554       O561   2.499       .  S
Cd554       O560   2.460       .  S
Cd554       O559   2.496       .  S
Cd554       O555   2.447       .  S
Cd554       O558   2.496       .  S
Cd554       O556   2.452       .  S
C557        O561   1.267       .  A
C557        C649   1.486       .  S
O562        C565   1.267       .  A
O562       Cd567   2.448       .  S
C563        O572   1.264       .  A
C563        O568   1.266       .  A
C563        C661   1.482       .  S
O564        C570   1.269       .  A
O564       Cd567   2.480       .  S
C565        O573   1.268       .  A
C565        C841   1.483       .  S
C566        O571   1.269       .  A
C566        O569   1.263       .  A
C566        C613   1.483       .  S
Cd567       O574   2.437       .  S
Cd567       O573   2.464       .  S
Cd567       O572   2.479       .  S
Cd567       O568   2.440       .  S
Cd567       O571   2.487       .  S
Cd567       O569   2.434       .  S
C570        O574   1.263       .  A
C570        C625   1.480       .  S
O575        C578   1.264       .  A
O575       Cd580   2.468       .  S
C576        O585   1.268       .  A
C576        O581   1.267       .  A
C576        C724   1.482       .  S
O577        C583   1.266   1_545  A
O577       Cd580   2.475   1_545  S
C578        O586   1.264       .  A
C578        C601   1.485       .  S
C579        O584   1.263       .  A
C579        O582   1.266   1_565  A
C579        C628   1.481   1_565  S
Cd580       O587   2.459       .  S
Cd580       O586   2.477       .  S
Cd580       O585   2.462       .  S
Cd580       O581   2.433       .  S
Cd580       O584   2.448       .  S
Cd580       O582   2.497   1_565  S
C583        O587   1.263       .  A
C583        C616   1.483       .  S
O588        C591   1.267       .  A
O588       Cd593   2.432       .  S
C589        O598   1.264       .  A
C589        O594   1.265       .  A
C589        C604   1.485       .  S
O590        C596   1.267       .  A
O590       Cd593   2.493       .  S
C591        O599   1.268       .  A
C591        C769   1.481       .  S
C592        O597   1.264       .  A
C592        O595   1.268       .  A
C592        C640   1.485       .  S
Cd593       O600   2.459       .  S
Cd593       O599   2.456       .  S
Cd593       O598   2.467       .  S
Cd593       O594   2.477       .  S
Cd593       O597   2.471       .  S
Cd593       O595   2.475       .  S
C596        O600   1.263       .  A
C596        C652   1.484       .  S
C601        C602   1.405       .  A
C601        C606   1.411       .  A
C602        C603   1.400       .  A
C602        H607   1.083       .  S
C603        C604   1.411       .  A
C603        O608   1.371       .  S
C604        C605   1.406       .  A
C605        C606   1.401       .  A
C605        H609   1.083   1_565  S
C606        O610   1.371   1_565  S
O608        H612   0.992       .  S
O610        H611   0.993       .  S
C613        C614   1.404   1_545  A
C613        C618   1.412       .  A
C614        C615   1.401       .  A
C614        H619   1.083       .  S
C615        C616   1.413       .  A
C615        O620   1.371       .  S
C616        C617   1.403   1_565  A
C617        C618   1.399       .  A
C617        H621   1.083       .  S
C618        O622   1.371       .  S
O620        H624   0.992       .  S
O622        H623   0.993       .  S
C625        C626   1.402   1_545  A
C625        C630   1.412   1_556  A
C626        H631   1.083       .  S
C627        C628   1.411   1_565  A
C627        O632   1.371       .  S
C628        C629   1.403       .  A
C629        H633   1.084       .  S
C630        O634   1.372   1_554  S
O632        H636   0.993       .  S
O634        H635   0.992   1_556  S
C637        C638   1.405   1_545  A
C637        C642   1.411   1_556  A
C638        H643   1.084       .  S
C639        C640   1.413       .  A
C639        O644   1.371       .  S
C640        C641   1.403   1_565  A
C641        H645   1.083       .  S
C642        O646   1.372   1_554  S
O644        H648   0.992       .  S
O646        H647   0.992   1_556  S
C649        C650   1.404   1_545  A
C649        C654   1.413       .  A
C650        C651   1.402       .  A
C650        H655   1.083       .  S
C651        C652   1.412       .  A
C651        O656   1.371       .  S
C652        C653   1.404   1_565  A
C653        C654   1.401       .  A
C653        H657   1.083       .  S
C654        O658   1.371       .  S
O656        H660   0.993       .  S
O658        H659   0.993       .  S
C661        C662   1.402       .  A
C661        C666   1.412       .  A
C662        C663   1.395       .  A
C662        H667   1.083       .  S
C663        C664   1.411       .  A
C663        O668   1.371       .  S
C664        C665   1.407       .  A
C665        C666   1.404       .  A
C665        H669   1.083       .  S
C666        O670   1.372       .  S
O668        H672   0.992       .  S
O670        H671   0.993   1_545  S
C673        C674   1.404       .  A
C673        C678   1.410       .  A
C674        C675   1.396       .  A
C674        H679   1.084       .  S
C675        C676   1.411       .  A
C675        O680   1.371       .  S
C676        C677   1.405       .  A
C677        C678   1.399       .  A
C677        H681   1.083       .  S
C678        O682   1.371       .  S
O680        H684   0.993       .  S
O682        H683   0.992       .  S
C685        C686   1.404   1_655  A
C685        C690   1.411       .  A
C686        C687   1.397       .  A
C686        H691   1.083       .  S
C687        C688   1.411   1_455  A
C687        O692   1.371       .  S
C688        C689   1.406       .  A
C689        C690   1.401       .  A
C689        H693   1.083       .  S
C690        O694   1.372       .  S
O692        H696   0.993       .  S
O694        H695   0.993       .  S
C697        C698   1.407       .  A
C697        C702   1.410       .  A
C698        C699   1.400       .  A
C698        H703   1.084       .  S
C699        C700   1.410       .  A
C699        O704   1.371       .  S
C700        C701   1.406       .  A
C701        C702   1.400       .  A
C701        H705   1.083   1_455  S
C702        O706   1.371       .  S
O704        H708   0.993       .  S
O706        H707   0.993       .  S
C709        C710   1.405       .  A
C709        C714   1.412       .  A
C710        H715   1.083       .  S
C711        C712   1.412       .  A
C711        O716   1.372   1_455  S
C712        C713   1.404       .  A
C713        H717   1.083       .  S
C714        O718   1.372       .  S
O716        H720   0.991       .  S
O718        H719   0.992       .  S
C721        C722   1.408       .  A
C721        C726   1.411       .  A
C722        C723   1.404       .  A
C722        H727   1.083       .  S
C723        C724   1.411       .  A
C723        O728   1.372       .  S
C724        C725   1.403       .  A
C725        C726   1.396       .  A
C725        H729   1.083       .  S
C726        O730   1.371       .  S
O728        H732   0.993       .  S
O730        H731   0.994       .  S
C733        C734   1.404       .  A
C733        C738   1.409       .  A
C734        C735   1.398       .  A
C734        H739   1.084       .  S
C735        C736   1.410       .  A
C735        O740   1.371       .  S
C736        C737   1.408       .  A
C737        C738   1.402       .  A
C737        H741   1.083   1_455  S
C738        O742   1.372   1_455  S
O740        H744   0.993       .  S
O742        H743   0.993       .  S
C745        C746   1.403       .  A
C745        C750   1.413       .  A
C746        H751   1.083       .  S
C747        C748   1.412       .  A
C747        O752   1.372       .  S
C748        C749   1.405       .  A
C749        H753   1.084       .  S
C750        O754   1.372   1_455  S
O752        H756   0.992       .  S
O754        H755   0.992       .  S
C757        C758   1.404       .  A
C757        C762   1.411       .  A
C758        C759   1.399       .  A
C758        H763   1.083       .  S
C759        C760   1.411       .  A
C759        O764   1.371       .  S
C760        C761   1.407       .  A
C761        C762   1.402       .  A
C761        H765   1.083       .  S
C762        O766   1.372       .  S
O764        H768   0.992       .  S
O766        H767   0.992       .  S
C769        C770   1.404       .  A
C769        C774   1.411       .  A
C770        C771   1.397       .  A
C770        H775   1.084       .  S
C771        C772   1.412       .  A
C771        O776   1.372       .  S
C772        C773   1.405       .  A
C773        C774   1.400       .  A
C773        H777   1.083       .  S
C774        O778   1.371       .  S
O776        H780   0.993       .  S
O778        H779   0.992       .  S
C781        C782   1.404       .  A
C781        C786   1.411       .  A
C782        C783   1.398       .  A
C782        H787   1.083       .  S
C783        C784   1.410       .  A
C783        O788   1.371       .  S
C784        C785   1.405       .  A
C785        C786   1.399       .  A
C785        H789   1.084       .  S
C786        O790   1.372       .  S
O788        H792   0.992       .  S
O790        H791   0.994       .  S
C793        C794   1.405       .  A
C793        C798   1.410       .  A
C794        C795   1.399       .  A
C794        H799   1.084       .  S
C795        C796   1.411       .  A
C795        O800   1.371       .  S
C796        C797   1.405       .  A
C797        C798   1.397       .  A
C797        H801   1.083       .  S
C798        O802   1.372       .  S
O800        H804   0.993       .  S
O802        H803   0.993       .  S
C805        C806   1.404       .  A
C805        C810   1.410       .  A
C806        C807   1.398       .  A
C806        H811   1.083       .  S
C807        C808   1.410       .  A
C807        O812   1.371       .  S
C808        C809   1.404       .  A
C809        C810   1.395       .  A
C809        H813   1.084       .  S
C810        O814   1.372       .  S
O812        H816   0.992       .  S
O814        H815   0.992       .  S
C817        C818   1.404       .  A
C817        C822   1.414       .  A
C818        C819   1.401       .  A
C818        H823   1.083       .  S
C819        C820   1.413       .  A
C819        O824   1.371       .  S
C820        C821   1.405       .  A
C821        C822   1.405       .  A
C821        H825   1.083       .  S
C822        O826   1.371       .  S
O824        H828   0.992       .  S
O826        H827   0.993       .  S
C829        C830   1.405       .  A
C829        C834   1.414       .  A
C830        H835   1.083       .  S
C831        C832   1.411       .  A
C831        O836   1.371       .  S
C832        C833   1.403       .  A
C833        H837   1.084       .  S
C834        O838   1.371       .  S
O836        H840   0.992       .  S
O838        H839   0.993       .  S
C841        C842   1.406       .  A
C841        C846   1.411       .  A
C842        C843   1.400       .  A
C842        H847   1.083       .  S
C843        C844   1.411       .  A
C843        O848   1.372       .  S
C844        C845   1.404       .  A
C845        C846   1.397       .  A
C845        H849   1.084       .  S
C846        O850   1.371       .  S
O848        H852   0.992       .  S
O850        H851   0.994       .  S
C853        C854   1.403       .  A
C853        C858   1.412       .  A
C854        C855   1.400       .  A
C854        H859   1.084       .  S
C855        C856   1.413       .  A
C855        O860   1.371       .  S
C856        C857   1.405       .  A
C857        C858   1.402       .  A
C857        H861   1.083       .  S
C858        O862   1.371       .  S
O860        H864   0.993       .  S
O862        H863   0.992       .  S
C865        C866   1.406       .  A
C865        C870   1.410       .  A
C866        H871   1.084       .  S
C867        C868   1.409       .  A
C867        O872   1.371       .  S
C868        C869   1.406       .  A
C869        H873   1.084       .  S
C870        O874   1.371       .  S
O872        H876   0.994       .  S
O874        H875   0.993       .  S
C877        C878   1.403       .  A
C877        C882   1.411       .  A
C878        C879   1.396       .  A
C878        H883   1.083       .  S
C879        C880   1.411       .  A
C879        O884   1.372       .  S
C880        C881   1.406       .  A
C881        C882   1.400       .  A
C881        H885   1.083       .  S
C882        O886   1.372       .  S
O884        H888   0.992       .  S
O886        H887   0.993       .  S
