geometry optimzed in LAMMPS
_audit_creation_date              2020-11-30 
_audit_creation_method            'lammps2cif' 
_symmetry_space_group_name_H-M    'P1' 
_symmetry_Int_Tables_number       1 
_symmetry_cell_setting            triclinic 
loop_ 
_symmetry_equiv_pos_as_xyz 
  x,y,z 
_cell_length_a                    35.1020558 
_cell_length_b                    32.132498885346045 
_cell_length_c                    25.282047874286658 
_cell_angle_alpha                 90.45584511456799 
_cell_angle_beta                  88.9414508482492 
_cell_angle_gamma                 88.29648137956487 
loop_ 
_atom_site_label 
_atom_site_type_symbol 
_atom_site_fract_x 
_atom_site_fract_y 
_atom_site_fract_z 
_atom_site_charge 
O1          O  0.44638083  0.99069007  0.96127532    -0.71200
O2          O  0.05689442  0.00761701  0.92515979    -0.71400
O3          O  0.50754690  0.93856451  0.94577631    -0.71300
O4          O  0.99778661  0.06227012  0.92566557    -0.71300
O5          O  0.50643555  0.05515459  0.03687488    -0.71200
O6          O  0.00431993  0.94432373  0.01217042    -0.71300
O7          O  0.05681052  0.00351865  0.01095724    -0.71200
O8          O  0.45413409  0.99450719  0.04621533    -0.71400
V9          V  0.49967353  0.99740897  0.95149937     1.35200
V10         V  0.00271728  0.00386634  0.01006763     1.35200
C11         C  0.43206893  0.99120956  0.00764862     0.78000
C12         C  0.07513679  0.00612990  0.96762200     0.78100
C13         C  0.00946027  0.92399365  0.96937136     0.78000
C14         C  0.99952808  0.08299584  0.96826008     0.77900
O15         O  0.05353991  0.99597822  0.46531120    -0.71200
O16         O  0.44558083  0.00483466  0.47900357    -0.71400
O17         O  0.99965771  0.05557028  0.45215138    -0.71300
O18         O  0.49811093  0.94268484  0.46540279    -0.71300
O19         O  0.99842323  0.95130727  0.56347967    -0.71200
O20         O  0.50063470  0.05028080  0.57337405    -0.71300
O21         O  0.44583888  0.99230415  0.56326735    -0.71200
O22         O  0.05220993  0.00816152  0.55001290    -0.71400
V23         V  0.99934557  0.99759719  0.46720231     1.35200
V24         V  0.50028904  0.99176733  0.56006292     1.35200
C25         C  0.07126293  0.00152540  0.50777848     0.78000
C26         C  0.42715610  0.99858868  0.52155098     0.78100
C27         C  0.00000545  0.08164418  0.48983459     0.78000
C28         C  0.00078524  0.92537591  0.52557323     0.77900
O29         O  0.30850101  0.98694302  0.02929593    -0.71200
O30         O  0.20027417  0.99250208  0.04331231    -0.71400
O31         O  0.25216611  0.93123908  0.02516327    -0.71300
O32         O  0.25481529  0.04835924  0.04820171    -0.71300
O33         O  0.25007363  0.05869294  0.96377018    -0.71200
O34         O  0.24954907  0.94082608  0.94033530    -0.71300
O35         O  0.19643562  0.00147380  0.95845430    -0.71200
O36         O  0.30379880  0.99788524  0.94492029    -0.71400
V37         V  0.25415112  0.98992672  0.03482164     1.35200
V38         V  0.25018033  0.99953233  0.95352435     1.35200
C39         C  0.32448153  0.99148462  0.98443978     0.78000
C40         C  0.18005434  0.99804682  0.00304665     0.78100
C41         C  0.24941837  0.91610197  0.97908395     0.78000
C42         C  0.25094115  0.07356166  0.01035694     0.77900
O43         O  0.30196808  0.99791747  0.51905588    -0.71200
O44         O  0.19367203  0.99991110  0.51203526    -0.71400
O45         O  0.24725203  0.93956597  0.52091687    -0.71300
O46         O  0.24695890  0.05833039  0.50975326    -0.71300
O47         O  0.24631461  0.05231638  0.42416712    -0.71200
O48         O  0.25613268  0.93426175  0.43582994    -0.71300
O49         O  0.19764117  0.98964412  0.42705128    -0.71200
O50         O  0.30550550  0.99697727  0.43319590    -0.71400
V51         V  0.24770281  0.99881792  0.51387611     1.35200
V52         V  0.25147939  0.99341038  0.43170888     1.35200
C53         C  0.32223028  0.99792829  0.47708516     0.78000
C54         C  0.17726572  0.99439941  0.46851609     0.78100
C55         C  0.25141021  0.91675178  0.47999525     0.78000
C56         C  0.24478766  0.07550861  0.46487027     0.77900
N57         N  0.03181919  0.74526355  0.95018631    -0.36000
N58         N  0.02730708  0.74534955  0.06446448    -0.56600
N59         N  0.04307717  0.65480851  0.06376346    -0.36000
N60         N  0.04363027  0.65417836  0.94946523    -0.56600
C61         C  0.01447702  0.78295576  0.96018772     0.27600
C62         C  0.02450077  0.73502168  0.89934895     0.27600
C63         C  0.03484164  0.66170605  0.11565217     0.27600
C64         C  0.04016954  0.61333900  0.05466787     0.27600
C65         C  0.02553238  0.78706469  0.05668078     0.36200
C66         C  0.03374528  0.73961246  0.11657298     0.36200
C67         C  0.04853718  0.66124919  0.89719078     0.36200
C68         C  0.05134413  0.61314012  0.95696690     0.36200
C69         C  0.99533124  0.79605565  0.91550348    -0.21300
C70         C  0.00230001  0.76634574  0.87693071    -0.21300
C71         C  0.02750386  0.62420349  0.14003984    -0.21300
C72         C  0.03068238  0.59377854  0.10160315    -0.21300
C73         C  0.03069524  0.80780180  0.10424021    -0.22400
C74         C  0.03576170  0.77779826  0.14208736    -0.22400
C75         C  0.05951678  0.62448337  0.87126946    -0.22400
C76         C  0.06102364  0.59395524  0.90910688    -0.22400
C77         C  0.01680839  0.80644619  0.00791900    -0.17700
C78         C  0.03848547  0.69899770  0.87182327    -0.17700
C79         C  0.04676551  0.59225751  0.00568927    -0.17700
C80         C  0.03517469  0.70059485  0.14230165    -0.17700
H81         H  0.97784027  0.82403251  0.91094448     0.15200
H82         H  0.99158639  0.76749827  0.83711068     0.15200
H83         H  0.02032513  0.61924323  0.18128249     0.15200
H84         H  0.02652411  0.56091007  0.10768842     0.15200
H85         H  0.03058163  0.84104549  0.11133783     0.13500
H86         H  0.03995237  0.78349055  0.18380793     0.13500
H87         H  0.06431766  0.61977056  0.82920126     0.13500
H88         H  0.06768773  0.56124986  0.90205041     0.13500
H89         H  0.05096203  0.72954876  0.97443092     0.26700
H90         H  0.05339627  0.67671736  0.03766005     0.26700
N91         N  0.03716791  0.74621155  0.44942065    -0.36000
N92         N  0.03505640  0.74823639  0.56454269    -0.56600
N93         N  0.04621723  0.65708256  0.56444749    -0.36000
N94         N  0.04496127  0.65558970  0.44983914    -0.56600
C95         C  0.02629886  0.78653569  0.45831588     0.27600
C96         C  0.03117946  0.73766958  0.39768283     0.27600
C97         C  0.03710482  0.66502770  0.61594176     0.27600
C98         C  0.04039528  0.61607337  0.55525277     0.27600
C99         C  0.03841223  0.78943602  0.55506374     0.36200
C100        C  0.04448991  0.74207636  0.61562796     0.36200
C101        C  0.05047798  0.66209703  0.39751784     0.36200
C102        C  0.05386993  0.61497911  0.45844360     0.36200
C103        C  0.01361235  0.80387324  0.41148521    -0.21300
C104        C  0.01704044  0.77333604  0.37331732    -0.21300
C105        C  0.02616838  0.62834148  0.63981233    -0.21300
C106        C  0.02772168  0.59779299  0.60149525    -0.21300
C107        C  0.05021053  0.80953699  0.60029847    -0.22400
C108        C  0.05371917  0.77968583  0.63874493    -0.22400
C109        C  0.06310761  0.62533561  0.37288364    -0.22400
C110        C  0.06558385  0.59567147  0.41152127    -0.22400
C111        C  0.02994479  0.80905178  0.50639564    -0.17700
C112        C  0.04049242  0.69948608  0.37106167    -0.17700
C113        C  0.04765645  0.59425341  0.50688170    -0.17700
C114        C  0.04118125  0.70373169  0.64260129    -0.17700
H115        H  0.00343851  0.83551357  0.40499385     0.15200
H116        H  0.01040884  0.77754966  0.33208381     0.15200
H117        H  0.01821420  0.62340535  0.68070503     0.15200
H118        H  0.02065636  0.56559654  0.60741429     0.15200
H119        H  0.05587249  0.84224221  0.60520125     0.13500
H120        H  0.06189565  0.78534921  0.67912881     0.13500
H121        H  0.06900951  0.61987303  0.33124560     0.13500
H122        H  0.07402458  0.56329387  0.40545060     0.13500
H123        H  0.05172887  0.72711077  0.47553949     0.26700
H124        H  0.05950252  0.67749014  0.53889579     0.26700
N125        N  0.21778315  0.74000412  0.94600099    -0.36000
N126        N  0.20412312  0.65002667  0.94544992    -0.56600
N127        N  0.20427089  0.65031692  0.05988709    -0.36000
N128        N  0.21199374  0.74056796  0.06041919    -0.56600
C129        C  0.20713632  0.73353984  0.89545344     0.27600
C130        C  0.21375007  0.78145560  0.95605499     0.27600
C131        C  0.19251446  0.61137535  0.04953710     0.27600
C132        C  0.19346721  0.65981477  0.11034164     0.27600
C133        C  0.21200168  0.65610206  0.89357256     0.36200
C134        C  0.20810072  0.60853360  0.95358194     0.36200
C135        C  0.22415687  0.77972962  0.05287854     0.36200
C136        C  0.21479912  0.73294467  0.11284043     0.36200
C137        C  0.19619200  0.77122301  0.87316496    -0.21300
C138        C  0.20020031  0.80139543  0.91141615    -0.21300
C139        C  0.17397879  0.59596886  0.09377722    -0.21300
C140        C  0.17445956  0.62661036  0.13212994    -0.21300
C141        C  0.22073598  0.61838711  0.86858543    -0.22400
C142        C  0.21859065  0.58828744  0.90667334    -0.22400
C143        C  0.23482551  0.79682231  0.10077743    -0.22400
C144        C  0.22878433  0.76729495  0.13865004    -0.22400
C145        C  0.20925833  0.69496735  0.86788743    -0.17700
C146        C  0.22259586  0.80152013  0.00434621    -0.17700
C147        C  0.20257615  0.69646119  0.13828327    -0.17700
C148        C  0.20004393  0.58865443  0.00213412    -0.17700
H149        H  0.18619221  0.77645061  0.83344861     0.15200
H150        H  0.19330920  0.83418889  0.90688203     0.15200
H151        H  0.16142544  0.56577708  0.09793943     0.15200
H152        H  0.16245884  0.62453851  0.17173705     0.15200
H153        H  0.22801730  0.61311451  0.82723816     0.13500
H154        H  0.22391055  0.55527475  0.90029657     0.13500
H155        H  0.24548513  0.82755009  0.10806495     0.13500
H156        H  0.23384647  0.77088964  0.18051280     0.13500
H157        H  0.23071030  0.71801407  0.97035533     0.26700
H158        H  0.22250988  0.66730446  0.03607217     0.26700
N159        N  0.20265643  0.74439695  0.44662312    -0.36000
N160        N  0.20813614  0.74408032  0.56107755    -0.56600
N161        N  0.19552788  0.65353477  0.56094394    -0.36000
N162        N  0.19381838  0.65356719  0.44635686    -0.56600
C163        C  0.21365670  0.78417025  0.45453415     0.27600
C164        C  0.20380063  0.73652898  0.39383011     0.27600
C165        C  0.20635564  0.66045599  0.61129685     0.27600
C166        C  0.20175709  0.61234736  0.55037859     0.27600
C167        C  0.20768424  0.78579516  0.55342916     0.36200
C168        C  0.20189566  0.73813872  0.61341594     0.36200
C169        C  0.18532876  0.66157513  0.39538113     0.36200
C170        C  0.18523633  0.61335227  0.45525207     0.36200
C171        C  0.22075256  0.80198435  0.40558901    -0.21300
C172        C  0.21518290  0.77197824  0.36772768    -0.21300
C173        C  0.21915842  0.62329280  0.63318731    -0.21300
C174        C  0.21653372  0.59307031  0.59473838    -0.21300
C175        C  0.20159965  0.80634129  0.60148930    -0.22400
C176        C  0.19745376  0.77624270  0.63922398    -0.22400
C177        C  0.17074513  0.62634147  0.37204069    -0.22400
C178        C  0.17079536  0.59582686  0.40987112    -0.22400
C179        C  0.21459686  0.80562551  0.50425122    -0.17700
C180        C  0.19355201  0.69890367  0.36818754    -0.17700
C181        C  0.19331679  0.59144744  0.50243036    -0.17700
C182        C  0.20371461  0.69902387  0.63891669    -0.17700
H183        H  0.22811540  0.83362214  0.39695575     0.15200
H184        H  0.21855542  0.77636577  0.32555103     0.15200
H185        H  0.22972305  0.61849119  0.67269272     0.15200
H186        H  0.22474033  0.56057969  0.59911769     0.15200
H187        H  0.20037306  0.83954508  0.60898656     0.13500
H188        H  0.19252749  0.78188711  0.68108834     0.13500
H189        H  0.16152774  0.62278877  0.33167526     0.13500
H190        H  0.16161344  0.56424374  0.40443210     0.13500
H191        H  0.19171806  0.72472908  0.47504431     0.26700
H192        H  0.18116181  0.67502280  0.53733156     0.26700
N193        N  0.02559369  0.25926787  0.06316520    -0.36000
N194        N  0.02523294  0.25933830  0.94795282    -0.56600
N195        N  0.03745935  0.34942480  0.94992114    -0.36000
N196        N  0.03286312  0.34978262  0.06486065    -0.56600
C197        C  0.01259591  0.22080276  0.05239456     0.27600
C198        C  0.01659924  0.26819926  0.11448321     0.27600
C199        C  0.03089773  0.34292755  0.89792137     0.27600
C200        C  0.03384597  0.39097215  0.95930414     0.27600
C201        C  0.03002994  0.21805507  0.95692776     0.36200
C202        C  0.03683589  0.26558045  0.89741629     0.36200
C203        C  0.03701456  0.34193432  0.11706964     0.36200
C204        C  0.04281289  0.38978696  0.05708578     0.36200
C205        C  0.99502442  0.20526664  0.09736541    -0.21300
C206        C  0.99760098  0.23506683  0.13646161    -0.21300
C207        C  0.02334179  0.38078625  0.87378770    -0.21300
C208        C  0.02559364  0.41105325  0.91224345    -0.21300
C209        C  0.04539814  0.19825099  0.91211512    -0.22400
C210        C  0.04920717  0.22828574  0.87421310    -0.22400
C211        C  0.04975791  0.37716047  0.14248354    -0.22400
C212        C  0.05293989  0.40750347  0.10476460    -0.22400
C213        C  0.01873601  0.19821099  0.00434462    -0.17700
C214        C  0.02667027  0.30455830  0.14272625    -0.17700
C215        C  0.04008631  0.41137734  0.00836831    -0.17700
C216        C  0.03435273  0.30410417  0.87099607    -0.17700
H217        H  0.98190344  0.17540443  0.10177525     0.15200
H218        H  0.98674463  0.23252522  0.17661407     0.15200
H219        H  0.01751766  0.38624341  0.83248954     0.15200
H220        H  0.02206797  0.44414008  0.90567610     0.15200
H221        H  0.05335523  0.16566378  0.90709892     0.13500
H222        H  0.06021925  0.22335650  0.83430376     0.13500
H223        H  0.05562074  0.38096839  0.18407549     0.13500
H224        H  0.06145572  0.43908813  0.11196472     0.13500
H225        H  0.04342060  0.27630343  0.03887146     0.26700
H226        H  0.04781396  0.32719007  0.97600082     0.26700
N227        N  0.02092246  0.26237096  0.56482542    -0.36000
N228        N  0.01783985  0.26031727  0.45145532    -0.56600
N229        N  0.02833657  0.35123187  0.45112338    -0.36000
N230        N  0.03655247  0.35168676  0.56451277    -0.56600
C231        C  0.02280899  0.22089166  0.55482529     0.27600
C232        C  0.03476351  0.26831790  0.61377449     0.27600
C233        C  0.03510019  0.34106760  0.39959418     0.27600
C234        C  0.04196652  0.38980434  0.45937606     0.27600
C235        C  0.00214219  0.22319063  0.46213117     0.36200
C236        C  0.00901228  0.26977849  0.40106256     0.36200
C237        C  0.02994468  0.34550248  0.61667953     0.36200
C238        C  0.03231562  0.39317476  0.55657933     0.36200
C239        C  0.03863735  0.20037206  0.59763062    -0.21300
C240        C  0.04622507  0.23034088  0.63481164    -0.21300
C241        C  0.05352834  0.37350319  0.37496764    -0.21300
C242        C  0.05765399  0.40429766  0.41258036    -0.21300
C243        C  0.98255747  0.20946405  0.41851025    -0.22400
C244        C  0.98746512  0.23864550  0.37954843    -0.22400
C245        C  0.02164346  0.38315276  0.64206039    -0.22400
C246        C  0.02304834  0.41336599  0.60395555    -0.22400
C247        C  0.00772358  0.20111896  0.50992191    -0.17700
C248        C  0.03327516  0.30650288  0.64194190    -0.17700
C249        C  0.03861817  0.41293487  0.50743765    -0.17700
C250        C  0.02216809  0.30490914  0.37342780    -0.17700
H251        H  0.04372244  0.16719945  0.60199832     0.15200
H252        H  0.05797679  0.22473023  0.67348382     0.15200
H253        H  0.06252557  0.37515925  0.33388423     0.15200
H254        H  0.07062274  0.43402526  0.40615916     0.15200
H255        H  0.96637413  0.18150483  0.41484528     0.13500
H256        H  0.97615578  0.23733548  0.34005192     0.13500
H257        H  0.01510418  0.38830721  0.68364277     0.13500
H258        H  0.01772536  0.44636667  0.61046417     0.13500
H259        H  0.00621711  0.28464597  0.54279132     0.26700
H260        H  0.01146836  0.33484829  0.47748661     0.26700
N261        N  0.22503449  0.25354999  0.05225300    -0.36000
N262        N  0.22374541  0.25623255  0.93789273    -0.56600
N263        N  0.20720526  0.34638810  0.94076378    -0.36000
N264        N  0.21406872  0.34507109  0.05470510    -0.56600
C265        C  0.24166091  0.21591828  0.03965148     0.27600
C266        C  0.23512966  0.26339923  0.10217682     0.27600
C267        C  0.21497468  0.34008175  0.88867580     0.27600
C268        C  0.21107121  0.38748430  0.95099090     0.27600
C269        C  0.22319947  0.21453657  0.94556031     0.36200
C270        C  0.21236786  0.26280575  0.88765470     0.36200
C271        C  0.20869786  0.33613860  0.10647092     0.36200
C272        C  0.20071764  0.38466871  0.04816213     0.36200
C273        C  0.26289417  0.20207904  0.08217619    -0.21300
C274        C  0.25831734  0.23169524  0.12177187    -0.21300
C275        C  0.22347331  0.37765897  0.86526205    -0.21300
C276        C  0.22122019  0.40753097  0.90460946    -0.21300
C277        C  0.21093249  0.19481785  0.90020499    -0.22400
C278        C  0.20413000  0.22533591  0.86363244    -0.22400
C279        C  0.19143790  0.37000963  0.13266973    -0.22400
C280        C  0.18648128  0.40075933  0.09576445    -0.22400
C281        C  0.23691389  0.19386169  0.99114008    -0.17700
C282        C  0.22254595  0.29940866  0.13119902    -0.17700
C283        C  0.20389266  0.40740323  0.00060324    -0.17700
C284        C  0.21284353  0.30158286  0.86146467    -0.17700
H285        H  0.28049876  0.17399932  0.08452731     0.15200
H286        H  0.27114787  0.23036154  0.16034778     0.15200
H287        H  0.23066509  0.38304027  0.82411602     0.15200
H288        H  0.22646660  0.44027456  0.89943431     0.15200
H289        H  0.20746057  0.16182225  0.89382085     0.13500
H290        H  0.19469339  0.22044294  0.82360419     0.13500
H291        H  0.18375802  0.37257424  0.17424462     0.13500
H292        H  0.17408374  0.43154660  0.10318883     0.13500
H293        H  0.20490377  0.26990408  0.03011228     0.26700
H294        H  0.19622123  0.32446712  0.96659153     0.26700
N295        N  0.22702917  0.25601100  0.43883931    -0.36000
N296        N  0.21644205  0.34751558  0.43996292    -0.56600
N297        N  0.20865368  0.34676940  0.55420116    -0.36000
N298        N  0.22486293  0.25632934  0.55311546    -0.56600
C299        C  0.23779616  0.26624602  0.38898058     0.27600
C300        C  0.24282651  0.21783337  0.44901582     0.27600
C301        C  0.21267429  0.38807955  0.54559888     0.27600
C302        C  0.21697157  0.33965867  0.60552648     0.27600
C303        C  0.21251014  0.33948556  0.38767912     0.36200
C304        C  0.20359543  0.38730042  0.44846033     0.36200
C305        C  0.22464838  0.21470248  0.54402593     0.36200
C306        C  0.21467391  0.26226194  0.60459845     0.36200
C307        C  0.26085380  0.23448725  0.36734214    -0.21300
C308        C  0.26438903  0.20419823  0.40535961    -0.21300
C309        C  0.22367061  0.40722025  0.59203012    -0.21300
C310        C  0.22622749  0.37675733  0.62980425    -0.21300
C311        C  0.19692225  0.37424627  0.36300319    -0.22400
C312        C  0.19131552  0.40444925  0.40140132    -0.22400
C313        C  0.21398947  0.19430448  0.58989046    -0.22400
C314        C  0.20775889  0.22437493  0.62817405    -0.22400
C315        C  0.22541697  0.30231725  0.36140284    -0.17700
C316        C  0.23694458  0.19478532  0.49616786    -0.17700
C317        C  0.21467700  0.30097973  0.63174137    -0.17700
C318        C  0.20535802  0.40910917  0.49744023    -0.17700
H319        H  0.27401286  0.23341332  0.32827284     0.15200
H320        H  0.28121738  0.17557041  0.40121033     0.15200
H321        H  0.22950678  0.43975919  0.59816771     0.15200
H322        H  0.23420960  0.38141308  0.67052862     0.15200
H323        H  0.19056026  0.37774780  0.32153565     0.13500
H324        H  0.17969108  0.43556006  0.39521189     0.13500
H325        H  0.21122506  0.16118175  0.59553473     0.13500
H326        H  0.19949469  0.21888603  0.66892232     0.13500
H327        H  0.20678830  0.27215001  0.46209399     0.26700
H328        H  0.19726551  0.32541879  0.52826235     0.26700
C329        C  0.18341591  0.32129016  0.77475055    -0.12800
C330        C  0.21312645  0.30161720  0.80247499     0.09400
C331        C  0.24337873  0.28195940  0.77390736    -0.12800
C332        C  0.24382124  0.28169692  0.71857780    -0.12800
C333        C  0.21398484  0.30104948  0.69078748     0.09400
C334        C  0.18383727  0.32099297  0.71933338    -0.12800
H335        H  0.15992216  0.33673524  0.79608481     0.13400
H336        H  0.26670096  0.26691619  0.79457724     0.13400
H337        H  0.26750231  0.26651049  0.69732407     0.13400
H338        H  0.16066430  0.33624977  0.69861059     0.13400
C339        C  0.24727501  0.32776819  0.21699699    -0.12800
C340        C  0.22492442  0.29904568  0.19019780     0.09400
C341        C  0.20389648  0.27063947  0.21987961    -0.12800
C342        C  0.20451190  0.27149813  0.27527595    -0.12800
C343        C  0.22617314  0.30077470  0.30217209     0.09400
C344        C  0.24795943  0.32856678  0.27244541    -0.12800
H345        H  0.26390534  0.34980630  0.19490203     0.13400
H346        H  0.18645321  0.24827983  0.20009505     0.13400
H347        H  0.18756801  0.24970884  0.29730992     0.13400
H348        H  0.26518532  0.35111952  0.29224635     0.13400
C349        C  0.52907132  0.32157458  0.79153398    -0.12800
C350        C  0.03480404  0.30372216  0.81208750     0.09400
C351        C  0.06413675  0.32274262  0.78352644    -0.12800
C352        C  0.06379505  0.32353229  0.72822687    -0.12800
C353        C  0.03413805  0.30524950  0.70069807     0.09400
C354        C  0.52754122  0.32250406  0.73636567    -0.12800
H355        H  0.50937734  0.34121803  0.81471739     0.13400
H356        H  0.08708392  0.33722048  0.80418511     0.13400
H357        H  0.08654060  0.33850041  0.70683315     0.13400
H358        H  0.50678448  0.34289892  0.71767355     0.13400
C359        C  0.04549231  0.27452298  0.28601975    -0.12800
C360        C  0.02241342  0.30384953  0.31427052     0.09400
C361        C  0.52529400  0.27508592  0.28909291    -0.12800
C362        C  0.52566426  0.27578400  0.23373421    -0.12800
C363        C  0.02477148  0.30384043  0.20209950     0.09400
C364        C  0.04677262  0.27461387  0.23049607    -0.12800
H365        H  0.06295746  0.25200385  0.30703167     0.13400
H366        H  0.50158225  0.26136040  0.30989254     0.13400
H367        H  0.50232035  0.26239893  0.21267980     0.13400
H368        H  0.06521458  0.25213463  0.20960769     0.13400
C369        C  0.17583574  0.47700644  0.53344486    -0.12800
C370        C  0.20141848  0.45598460  0.49811900     0.09400
C371        C  0.22431209  0.47999238  0.46460858    -0.12800
C372        C  0.22117531  0.52362990  0.46552914    -0.12800
C373        C  0.19556097  0.54460017  0.50066052     0.09400
C374        C  0.17334767  0.52073333  0.53514109    -0.12800
H375        H  0.15825242  0.45950713  0.56037200     0.13400
H376        H  0.24491382  0.46488996  0.43784143     0.13400
H377        H  0.23927072  0.54116713  0.43929738     0.13400
H378        H  0.15458149  0.53610432  0.56397615     0.13400
C379        C  0.17452895  0.52003971  0.97166405    -0.12800
C380        C  0.19935628  0.54218410  0.00365928     0.09400
C381        C  0.22452561  0.51985215  0.03627633    -0.12800
C382        C  0.22560130  0.47624166  0.03579401    -0.12800
C383        C  0.20123334  0.45401280  0.00308863     0.09400
C384        C  0.17533061  0.47642647  0.97156663    -0.12800
H385        H  0.15469069  0.53659415  0.94647163     0.13400
H386        H  0.24395964  0.53625145  0.06124145     0.13400
H387        H  0.24594811  0.45976696  0.06029502     0.13400
H388        H  0.15604407  0.46007813  0.94633964     0.13400
C389        C  0.17637547  0.67886617  0.72717023    -0.12800
C390        C  0.20514575  0.69814563  0.69777384     0.09400
C391        C  0.23562660  0.71566288  0.72444501    -0.12800
C392        C  0.23701412  0.71445130  0.77966047    -0.12800
C393        C  0.20806624  0.69550164  0.80906130     0.09400
C394        C  0.17778241  0.67760903  0.78239694    -0.12800
H395        H  0.15284937  0.66483563  0.70724415     0.13400
H396        H  0.25831688  0.73021576  0.70241877     0.13400
H397        H  0.26066826  0.72824912  0.79957061     0.13400
H398        H  0.15520293  0.66286011  0.80443122     0.13400
C399        C  0.22336020  0.67044090  0.22685558    -0.12800
C400        C  0.19924182  0.69648649  0.19722027     0.09400
C401        C  0.17248674  0.72286591  0.22386559    -0.12800
C402        C  0.17007171  0.72332895  0.27928224    -0.12800
C403        C  0.19445967  0.69750053  0.30898914     0.09400
C404        C  0.22106304  0.67103502  0.28217037    -0.12800
H405        H  0.24429846  0.65002788  0.20707452     0.13400
H406        H  0.15360753  0.74317008  0.20168476     0.13400
H407        H  0.14946708  0.74412418  0.29908911     0.13400
H408        H  0.24037437  0.65114159  0.30423247     0.13400
C409        C  0.53148016  0.51571026  0.54561743    -0.12800
C410        C  0.04606847  0.54760094  0.50628460     0.09400
C411        C  0.07063209  0.52322997  0.53745031    -0.12800
C412        C  0.06882028  0.47964805  0.53715427    -0.12800
C413        C  0.04192161  0.45942899  0.50621893     0.09400
C414        C  0.53295346  0.47209217  0.54536058    -0.12800
H415        H  0.51086903  0.53198643  0.57129000     0.13400
H416        H  0.09065309  0.53817343  0.56275252     0.13400
H417        H  0.08799155  0.46164908  0.56172761     0.13400
H418        H  0.51343696  0.45564837  0.57080217     0.13400
C419        C  0.07848106  0.52128664  0.01547853    -0.12800
C420        C  0.04570213  0.54580333  0.00525161     0.09400
C421        C  0.53683337  0.51593888  0.98289977    -0.12800
C422        C  0.53739804  0.47219413  0.98195689    -0.12800
C423        C  0.04211255  0.45791462  0.00869282     0.09400
C424        C  0.07682605  0.47764945  0.01652834    -0.12800
H425        H  0.10514727  0.53605802  0.02305022     0.13400
H426        H  0.51552334  0.53282772  0.96044263     0.13400
H427        H  0.51653770  0.45626715  0.95884280     0.13400
H428        H  0.10247887  0.45922316  0.02389021     0.13400
C429        C  0.51608672  0.66378886  0.79704501    -0.12800
C430        C  0.03930357  0.70001967  0.81305740     0.09400
C431        C  0.07274554  0.71036420  0.78551531    -0.12800
C432        C  0.07337492  0.71187177  0.73013928    -0.12800
C433        C  0.04032330  0.70400538  0.70164650     0.09400
C434        C  0.51509725  0.66310865  0.74169666    -0.12800
H435        H  0.49839700  0.64287923  0.81934876     0.13400
H436        H  0.09829656  0.71713127  0.80694151     0.13400
H437        H  0.09954480  0.71929054  0.70942442     0.13400
H438        H  0.49647176  0.64188155  0.72203954     0.13400
C439        C  0.07113599  0.69433103  0.22638152    -0.16400
C440        C  0.03623435  0.70011548  0.20098082     0.09400
C441        C  0.52238663  0.71611000  0.23857769    -0.12800
C442        C  0.52086442  0.71708989  0.29395272    -0.12800
C443        C  0.03880385  0.69853378  0.31220838     0.09400
C444        C  0.07243161  0.69393712  0.28161421    -0.12800
H445        H  0.09729502  0.69026643  0.20332411     0.13400
H446        H  0.49980244  0.73158564  0.21689753     0.13400
H447        H  0.49711646  0.73315964  0.31399864     0.13400
H448        H  0.09956075  0.68968968  0.30073435     0.13400
C449        C  0.24623055  0.14866669  0.49827156    -0.15900
C450        C  0.23894455  0.12132583  0.45924271    -0.31000
H451        H  0.25749889  0.13633620  0.53487417     0.13200
H452        H  0.22716160  0.13250081  0.42240288     0.13700
C453        C  0.24987017  0.87076803  0.48274408    -0.15900
C454        C  0.21998424  0.85192886  0.50555549    -0.31000
H455        H  0.27151602  0.85232133  0.46117169     0.13200
H456        H  0.19843689  0.87119071  0.52622166     0.13700
C457        C  0.24471626  0.11889064  0.02160914    -0.15900
C458        C  0.24855686  0.14838025  0.98436132    -0.31000
H459        H  0.23414128  0.12751196  0.06087657     0.13200
H460        H  0.25843389  0.13811719  0.94528600     0.13700
C461        C  0.22649814  0.84789924  0.00698728    -0.15900
C462        C  0.24536990  0.87068551  0.97099831    -0.31000
H463        H  0.21452913  0.86394153  0.04175162     0.13200
H464        H  0.25725339  0.85622612  0.93516369     0.13700
C465        C  0.00439905  0.12654123  0.47871138    -0.15900
C466        C  0.99769919  0.15623635  0.51587423    -0.31000
H467        H  0.01571823  0.13476411  0.44009293     0.13200
H468        H  0.49817362  0.14006641  0.47002366     0.13700
C469        C  0.00506554  0.88012353  0.53559174    -0.15900
C470        C  0.02664877  0.85553920  0.50283872    -0.31000
H471        H  0.49241829  0.85996304  0.45704067     0.13200
H472        H  0.04044583  0.86981680  0.46896853     0.13700
C473        C  0.38481978  0.99806069  0.52267357    -0.15900
C474        C  0.36444513  0.99916363  0.47797081    -0.31000
H475        H  0.37025837  0.99567716  0.56076949     0.13200
H476        H  0.37931227  0.00060792  0.43998339     0.13700
C477        C  0.13534174  0.99386097  0.46584453    -0.15900
C478        C  0.11317590  0.00062059  0.50911518    -0.31000
H479        H  0.12254503  0.98844249  0.42768572     0.13200
H480        H  0.12615845  0.00613766  0.54712382     0.13700
C481        C  0.01492889  0.15178070  0.00594518    -0.15900
C482        C  0.99977762  0.12908002  0.96690180    -0.31000
H483        H  0.02469251  0.13581444  0.04114900     0.13200
H484        H  0.47769138  0.13993976  0.97705682     0.13700
C485        C  0.00753384  0.85268171  0.00841120    -0.15900
C486        C  0.01702698  0.87827079  0.96845720    -0.31000
H487        H  0.50411537  0.85676880  0.05996976     0.13200
H488        H  0.03170932  0.86553997  0.93352974     0.13700
C489        C  0.36619228  0.98999772  0.97685009    -0.15900
C490        C  0.39058277  0.98871711  0.01703311    -0.31000
H491        H  0.37712696  0.99191476  0.93647012     0.13200
H492        H  0.37988661  0.98764407  0.05759220     0.13700
C493        C  0.11682032  0.00674418  0.96535910    -0.15900
C494        C  0.13830682  0.00025306  0.00795358    -0.31000
H495        H  0.13021987  0.01109388  0.92677117     0.13200
H496        H  0.12511633  0.99562560  0.04659300     0.13700
O497        O  0.94964602  0.99894291  0.92628373    -0.71200
O498        O  0.55273512  0.00423400  0.93888204    -0.71400
O499        O  0.00969868  0.94399931  0.92643837    -0.71300
O500        O  0.49221979  0.05646405  0.95364474    -0.71300
O501        O  0.00189072  0.06327115  0.01129516    -0.71200
O502        O  0.51000096  0.93569518  0.03142862    -0.71300
O503        O  0.56075674  0.99616806  0.02321285    -0.71200
O504        O  0.94845623  0.00450557  0.01201802    -0.71400
V505        V  0.00335264  0.00313245  0.92755671     1.35200
V506        V  0.50749490  0.99546391  0.03294349     1.35200
C507        C  0.93063796  0.00181876  0.96907869     0.78000
C508        C  0.57491976  0.00140613  0.97754359     0.78100
C509        C  0.51136754  0.91692581  0.98704144     0.78000
C510        C  0.49928395  0.07610132  0.99570501     0.77900
O511        O  0.55379266  0.99784230  0.47465964    -0.71200
O512        O  0.94494238  0.99880524  0.46601720    -0.71400
O513        O  0.50235091  0.06021661  0.48851573    -0.71300
O514        O  0.00033432  0.93913721  0.47880220    -0.71300
O515        O  0.50171116  0.93279424  0.55004648    -0.71200
O516        O  0.99831846  0.06808408  0.53672975    -0.71300
O517        O  0.94416032  0.01113412  0.55065706    -0.71200
O518        O  0.55427661  0.99086384  0.56008607    -0.71400
V519        V  0.49978728  0.00125688  0.47854592     1.35200
V520        V  0.99820768  0.00946912  0.54852764     1.35200
C521        C  0.57237551  0.99399586  0.51679460     0.78000
C522        C  0.92609299  0.00546849  0.50864429     0.78100
C523        C  0.50402838  0.07504720  0.53500679     0.78000
C524        C  0.50077653  0.91766556  0.50368109     0.77900
O525        O  0.80590806  0.00086277  0.05234114    -0.71200
O526        O  0.69868447  0.99578518  0.05110161    -0.71400
O527        O  0.75541837  0.93970044  0.03907978    -0.71300
O528        O  0.74704095  0.05709165  0.06330074    -0.71300
O529        O  0.74773059  0.06723573  0.97847548    -0.71200
O530        O  0.75757043  0.94999458  0.95426805    -0.71300
O531        O  0.69894300  0.00544656  0.96606105    -0.71200
O532        O  0.80712399  0.01138974  0.96753704    -0.71400
V533        V  0.75208151  0.99860048  0.04974403     1.35200
V534        V  0.75300858  0.00839827  0.96819600     1.35200
C535        C  0.82490502  0.00636749  0.01026900     0.78000
C536        C  0.68060619  0.99968951  0.00882294     0.78100
C537        C  0.75648776  0.92485972  0.99244338     0.78000
C538        C  0.74398722  0.08200684  0.02493623     0.77900
O539        O  0.80225561  0.00565860  0.51249388    -0.71200
O540        O  0.69413004  0.00205772  0.51402623    -0.71400
O541        O  0.75064675  0.94463736  0.51707852    -0.71300
O542        O  0.74412494  0.06341945  0.51012116    -0.71300
O543        O  0.74154792  0.05925906  0.42449527    -0.71200
O544        O  0.75506320  0.94108765  0.43131216    -0.71300
O545        O  0.69511696  0.99519100  0.42840473    -0.71200
O546        O  0.80245247  0.00521846  0.42655632    -0.71400
V547        V  0.74802235  0.00391604  0.51181313     1.35200
V548        V  0.74870532  0.00030327  0.42936248     1.35200
C549        C  0.82079123  0.00597288  0.46902623     0.78000
C550        C  0.67634704  0.99763175  0.47139566     0.78100
C551        C  0.75352161  0.92267176  0.47535073     0.78000
C552        C  0.73948614  0.08139149  0.46618222     0.77900
N553        N  0.53840443  0.73769817  0.96016604    -0.36000
N554        N  0.54090599  0.73752422  0.07421389    -0.56600
N555        N  0.55965618  0.64725035  0.07336295    -0.36000
N556        N  0.55157943  0.64645574  0.95955914    -0.56600
C557        C  0.52026784  0.77460161  0.97216317     0.27600
C558        C  0.52784678  0.72642709  0.91098106     0.27600
C559        C  0.55305935  0.65441048  0.12571489     0.27600
C560        C  0.55669000  0.60567939  0.06448602     0.27600
C561        C  0.53926771  0.77919541  0.06569118     0.36200
C562        C  0.55215281  0.73226929  0.12475565     0.36200
C563        C  0.55601706  0.65454301  0.90741093     0.36200
C564        C  0.56396709  0.60656817  0.96647554     0.36200
C565        C  0.49728382  0.78624737  0.93039611    -0.21300
C566        C  0.50251762  0.75617688  0.89152346    -0.21300
C567        C  0.54658096  0.61685744  0.15053609    -0.21300
C568        C  0.54872891  0.58627327  0.11205460    -0.21300
C569        C  0.54989564  0.80030775  0.11085597    -0.22400
C570        C  0.55806925  0.77068009  0.14809033    -0.22400
C571        C  0.57176577  0.61984873  0.88125499    -0.22400
C572        C  0.57642132  0.58936083  0.91856043    -0.22400
C573        C  0.52545408  0.79834732  0.01911192    -0.17700
C574        C  0.54193468  0.69097082  0.88236324    -0.17700
C575        C  0.56180514  0.58471284  0.01487032    -0.17700
C576        C  0.55351249  0.69376231  0.15192761    -0.17700
H577        H  0.47842352  0.81338624  0.92809114     0.15200
H578        H  0.48883514  0.75591747  0.85350509     0.15200
H579        H  0.54038942  0.61190106  0.19205266     0.15200
H580        H  0.54449093  0.55348836  0.11856871     0.15200
H581        H  0.55142633  0.83359565  0.11674569     0.13500
H582        H  0.56687009  0.77680621  0.18814030     0.13500
H583        H  0.57820820  0.61640874  0.83939084     0.13500
H584        H  0.58738116  0.55798812  0.91113426     0.13500
H585        H  0.55994222  0.72312026  0.98173666     0.26700
H586        H  0.56866192  0.66924049  0.04624311     0.26700
N587        N  0.53149749  0.73882264  0.46160031    -0.36000
N588        N  0.53008926  0.73578161  0.57620081    -0.56600
N589        N  0.54267988  0.64538924  0.57279850    -0.36000
N590        N  0.55012836  0.64816927  0.45848847    -0.56600
C591        C  0.53386948  0.77990781  0.47387380     0.27600
C592        C  0.54508385  0.73325199  0.41142027     0.27600
C593        C  0.54871715  0.65323229  0.62465381     0.27600
C594        C  0.55652974  0.60637177  0.56199655     0.27600
C595        C  0.51681938  0.77535837  0.56941021     0.36200
C596        C  0.52364123  0.72662393  0.62771885     0.36200
C597        C  0.54340962  0.65581905  0.40683845     0.36200
C598        C  0.54706583  0.60650785  0.46497372     0.36200
C599        C  0.54923271  0.80052877  0.43082185    -0.21300
C600        C  0.55598955  0.77120906  0.39138112    -0.21300
C601        C  0.56666172  0.61875075  0.64703033    -0.21300
C602        C  0.57148744  0.58917219  0.60755483    -0.21300
C603        C  0.50146967  0.79106375  0.61670716    -0.22400
C604        C  0.50585218  0.76028334  0.65355146    -0.22400
C605        C  0.53616104  0.61896760  0.38052569    -0.22400
C606        C  0.53829973  0.58782590  0.41731610    -0.22400
C607        C  0.52205770  0.79893083  0.52279971    -0.17700
C608        C  0.54593313  0.69520861  0.38237139    -0.17700
C609        C  0.55350169  0.58502882  0.51298768    -0.17700
C610        C  0.53643153  0.68969614  0.65288483    -0.17700
H611        H  0.55560534  0.83316852  0.42808232     0.15200
H612        H  0.56798112  0.77711126  0.35250339     0.15200
H613        H  0.57504756  0.61503293  0.68774146     0.15200
H614        H  0.58430651  0.55837863  0.61201862     0.15200
H615        H  0.48897780  0.82178066  0.62425717     0.13500
H616        H  0.49739719  0.76266561  0.69487999     0.13500
H617        H  0.52972780  0.61493769  0.33913081     0.13500
H618        H  0.53370637  0.55519552  0.40971877     0.13500
H619        H  0.51810521  0.71643447  0.48426202     0.26700
H620        H  0.52618392  0.66366708  0.54776369     0.26700
N621        N  0.72353175  0.74860808  0.94779503    -0.36000
N622        N  0.70690729  0.65848791  0.94487700    -0.56600
N623        N  0.70400074  0.65781157  0.05884846    -0.36000
N624        N  0.71479312  0.74803682  0.06200378    -0.56600
C625        C  0.71515446  0.74315359  0.89610230     0.27600
C626        C  0.72220971  0.79019841  0.95826907     0.27600
C627        C  0.69261590  0.61877091  0.04803888     0.27600
C628        C  0.69324794  0.66685197  0.10942253     0.27600
C629        C  0.71631403  0.66513262  0.89351212     0.36200
C630        C  0.70980638  0.61672110  0.95245418     0.36200
C631        C  0.72883155  0.78654754  0.05603619     0.36200
C632        C  0.71633996  0.73941723  0.11426313     0.36200
C633        C  0.70867901  0.78181285  0.87331643    -0.21300
C634        C  0.71303152  0.81138984  0.91242369    -0.21300
C635        C  0.67434210  0.60291738  0.09223650    -0.21300
C636        C  0.67465393  0.63327262  0.13090581    -0.21300
C637        C  0.72497948  0.62742302  0.86835393    -0.22400
C638        C  0.72116361  0.59686514  0.90571187    -0.22400
C639        C  0.73926081  0.80229985  0.10479466    -0.22400
C640        C  0.73122479  0.77255993  0.14159158    -0.22400
C641        C  0.71553746  0.70446361  0.86819450    -0.17700
C642        C  0.72940865  0.80916496  0.00812114    -0.17700
C643        C  0.70289562  0.70288288  0.13819944    -0.17700
C644        C  0.70038371  0.59629878  0.00038841    -0.17700
H645        H  0.70156772  0.78814155  0.83262964     0.15200
H646        H  0.70932136  0.84465970  0.90750092     0.15200
H647        H  0.66249330  0.57242489  0.09650926     0.15200
H648        H  0.66329430  0.63052379  0.17075962     0.15200
H649        H  0.73349187  0.62245536  0.82736914     0.13500
H650        H  0.72606037  0.56381431  0.89907666     0.13500
H651        H  0.75119843  0.83225772  0.11320388     0.13500
H652        H  0.73575856  0.77512685  0.18371104     0.13500
H653        H  0.73313951  0.72541038  0.97311598     0.26700
H654        H  0.72230514  0.67505895  0.03552090     0.26700
N655        N  0.71022478  0.74762778  0.44461702    -0.36000
N656        N  0.71998533  0.74780453  0.55867023    -0.56600
N657        N  0.70623623  0.65750572  0.56029782    -0.36000
N658        N  0.70119665  0.65656545  0.44584509    -0.56600
C659        C  0.72214835  0.78713165  0.45148000     0.27600
C660        C  0.71176246  0.73884970  0.39210461     0.27600
C661        C  0.71659627  0.66416131  0.61095941     0.27600
C662        C  0.70829016  0.61578870  0.55104156     0.27600
C663        C  0.71790353  0.78950010  0.55035073     0.36200
C664        C  0.71514473  0.74221133  0.61144795     0.36200
C665        C  0.69301624  0.66409687  0.39464291     0.36200
C666        C  0.69233792  0.61647972  0.45519242     0.36200
C667        C  0.73030559  0.80381100  0.40214243    -0.21300
C668        C  0.72435432  0.77332979  0.36508997    -0.21300
C669        C  0.72510431  0.62618038  0.63434642    -0.21300
C670        C  0.71999300  0.59577289  0.59662886    -0.21300
C671        C  0.71243957  0.81032261  0.59829307    -0.22400
C672        C  0.71046116  0.78050544  0.63672462    -0.22400
C673        C  0.67890576  0.62862163  0.37139453    -0.22400
C674        C  0.67846396  0.59853800  0.40966711    -0.22400
C675        C  0.72287744  0.80924976  0.50061554    -0.17700
C676        C  0.70055983  0.70141775  0.36728423    -0.17700
C677        C  0.69851081  0.59511175  0.50336563    -0.17700
C678        C  0.71631079  0.70326635  0.63774586    -0.17700
H679        H  0.73875965  0.83489790  0.39257885     0.15200
H680        H  0.72822056  0.77665515  0.32278084     0.15200
H681        H  0.73392180  0.62085905  0.67459078     0.15200
H682        H  0.72420294  0.56262911  0.60238234     0.15200
H683        H  0.71008603  0.84356807  0.60521870     0.13500
H684        H  0.70605708  0.78649069  0.67860561     0.13500
H685        H  0.67018196  0.62466387  0.33086567     0.13500
H686        H  0.66916147  0.56698298  0.40443448     0.13500
H687        H  0.69785465  0.72917680  0.47336050     0.26700
H688        H  0.69444352  0.67993964  0.53559479     0.26700
N689        N  0.54598403  0.25024316  0.06778622    -0.36000
N690        N  0.54741235  0.24911270  0.95364730    -0.56600
N691        N  0.55891763  0.33994613  0.95487209    -0.36000
N692        N  0.56178182  0.34037844  0.06907684    -0.56600
C693        C  0.54679654  0.20853421  0.05830885     0.27600
C694        C  0.55608141  0.25614486  0.11875704     0.27600
C695        C  0.56553858  0.33134568  0.90293874     0.27600
C696        C  0.56870190  0.37993948  0.96375308     0.27600
C697        C  0.53573109  0.20964794  0.96123908     0.36200
C698        C  0.54562589  0.25666626  0.90111853     0.36200
C699        C  0.55453122  0.33400420  0.12112791     0.36200
C700        C  0.55795535  0.38201166  0.06129447     0.36200
C701        C  0.55719998  0.18791449  0.10412372    -0.21300
C702        C  0.56335453  0.21782540  0.14187750    -0.21300
C703        C  0.57989929  0.36638719  0.87868540    -0.21300
C704        C  0.58191053  0.39690022  0.91693002    -0.21300
C705        C  0.52716319  0.19185959  0.91290240    -0.22400
C706        C  0.53305931  0.22160274  0.87511477    -0.22400
C707        C  0.54663050  0.37172259  0.14657121    -0.22400
C708        C  0.54856942  0.40202770  0.10872476    -0.22400
C709        C  0.53651146  0.18844963  0.01048902    -0.17700
C710        C  0.55578045  0.29478667  0.14648543    -0.17700
C711        C  0.56368285  0.40231173  0.01220626    -0.17700
C712        C  0.55617918  0.29412977  0.87576533    -0.17700
H713        H  0.55985737  0.15470926  0.11033643     0.15200
H714        H  0.57158505  0.21187980  0.18222564     0.15200
H715        H  0.58698197  0.37022760  0.83726286     0.15200
H716        H  0.59137157  0.42825854  0.91067240     0.15200
H717        H  0.51847562  0.16048809  0.90492080     0.13500
H718        H  0.52886668  0.21752794  0.83311823     0.13500
H719        H  0.53949708  0.37686163  0.18798103     0.13500
H720        H  0.54320623  0.43499160  0.11544869     0.13500
H721        H  0.53481552  0.27307469  0.04318087     0.26700
H722        H  0.54419170  0.32138614  0.98109632     0.26700
N723        N  0.54173840  0.25149641  0.56976445    -0.36000
N724        N  0.54039698  0.25172568  0.45534331    -0.56600
N725        N  0.55835425  0.34028961  0.45390326    -0.36000
N726        N  0.55375378  0.34187374  0.56831683    -0.56600
C727        C  0.52303540  0.21577347  0.56061991     0.27600
C728        C  0.53517816  0.26257012  0.62091578     0.27600
C729        C  0.55075969  0.33292462  0.40243780     0.27600
C730        C  0.55317991  0.38181423  0.46271065     0.27600
C731        C  0.53894168  0.21034364  0.46486952     0.36200
C732        C  0.55229054  0.25556426  0.40437811     0.36200
C733        C  0.56090266  0.33396310  0.61972941     0.36200
C734        C  0.56438340  0.38144464  0.55937382     0.36200
C735        C  0.50387421  0.20463267  0.60669910    -0.21300
C736        C  0.51228404  0.23358144  0.64496691    -0.21300
C737        C  0.54115967  0.37014716  0.37800395    -0.21300
C738        C  0.54235736  0.40090823  0.41606731    -0.21300
C739        C  0.55031599  0.18795471  0.41989298    -0.22400
C740        C  0.55887999  0.21655559  0.38172293    -0.22400
C741        C  0.57618858  0.36862657  0.64342611    -0.22400
C742        C  0.57826689  0.39871233  0.60526499    -0.22400
C743        C  0.52468177  0.19263067  0.51222887    -0.17700
C744        C  0.55027432  0.29751797  0.64676326    -0.17700
C745        C  0.55943473  0.40298968  0.51117302    -0.17700
C746        C  0.55352547  0.29364243  0.37660429    -0.17700
H747        H  0.48530020  0.17877132  0.61252591     0.15200
H748        H  0.50192583  0.23385097  0.68557393     0.15200
H749        H  0.53361673  0.37465829  0.33708746     0.15200
H750        H  0.53590899  0.43361763  0.40987019     0.15200
H751        H  0.55220034  0.15446508  0.41496891     0.13500
H752        H  0.56823667  0.20942670  0.34155347     0.13500
H753        H  0.58399517  0.37234755  0.68434465     0.13500
H754        H  0.58860539  0.42982183  0.61074911     0.13500
H755        H  0.56108003  0.26553966  0.54437579     0.26700
H756        H  0.56989986  0.31857582  0.47986874     0.26700
N757        N  0.71025018  0.26118925  0.06127197    -0.36000
N758        N  0.70488299  0.26100017  0.94750119    -0.56600
N759        N  0.68958718  0.35146535  0.94712033    -0.36000
N760        N  0.70024737  0.35272499  0.06060197    -0.56600
C761        C  0.72729826  0.22372235  0.04926104     0.27600
C762        C  0.72129542  0.27216803  0.11025073     0.27600
C763        C  0.69657598  0.34316437  0.89509569     0.27600
C764        C  0.69614108  0.39246647  0.95533731     0.27600
C765        C  0.70514041  0.21954317  0.95708873     0.36200
C766        C  0.69208777  0.26612079  0.89769450     0.36200
C767        C  0.69586167  0.34519348  0.11297815     0.36200
C768        C  0.68907214  0.39300395  0.05320630     0.36200
C769        C  0.74996907  0.21131425  0.09109515    -0.21300
C770        C  0.74552798  0.24146752  0.12995546    -0.21300
C771        C  0.70713177  0.37933063  0.86992246    -0.21300
C772        C  0.70701754  0.41027801  0.90780850    -0.21300
C773        C  0.69160955  0.19843698  0.91355728    -0.22400
C774        C  0.68331939  0.22791445  0.87602969    -0.22400
C775        C  0.68131297  0.38060735  0.13874817    -0.22400
C776        C  0.67758180  0.41098884  0.10110038    -0.22400
C777        C  0.72139042  0.20042873  0.00215467    -0.17700
C778        C  0.70852207  0.30827461  0.13846278    -0.17700
C779        C  0.69181593  0.41434805  0.00434774    -0.17700
C780        C  0.69288584  0.30403026  0.86946899    -0.17700
H781        H  0.76831260  0.18380765  0.09358448     0.15200
H782        H  0.75918809  0.24125501  0.16800041     0.15200
H783        H  0.71482953  0.38301101  0.82861994     0.15200
H784        H  0.71473036  0.44215470  0.90097754     0.15200
H785        H  0.68869520  0.16518284  0.90886349     0.13500
H786        H  0.67305227  0.22180750  0.83670116     0.13500
H787        H  0.67509356  0.38461222  0.18059102     0.13500
H788        H  0.66809452  0.44286379  0.10847716     0.13500
H789        H  0.68918879  0.27664911  0.03980019     0.26700
H790        H  0.67799240  0.33100502  0.97431313     0.26700
N791        N  0.70954949  0.26048615  0.44470228    -0.36000
N792        N  0.69847002  0.35156131  0.44700569    -0.56600
N793        N  0.69355753  0.35091188  0.56137594    -0.36000
N794        N  0.70953441  0.26054510  0.55920736    -0.56600
C795        C  0.71922427  0.27127340  0.39466054     0.27600
C796        C  0.72700776  0.22307148  0.45431068     0.27600
C797        C  0.69872790  0.39208342  0.55271809     0.27600
C798        C  0.70170482  0.34334040  0.61269828     0.27600
C799        C  0.69279767  0.34384784  0.39511932     0.36200
C800        C  0.68732678  0.39173090  0.45607363     0.36200
C801        C  0.70919035  0.21900865  0.54920218     0.36200
C802        C  0.69830008  0.26602669  0.61041996     0.36200
C803        C  0.74309129  0.24063338  0.37219413    -0.21300
C804        C  0.74856730  0.21062727  0.41006605    -0.21300
C805        C  0.71011626  0.41077509  0.59922809    -0.21300
C806        C  0.71182831  0.38012988  0.63703630    -0.21300
C807        C  0.67729501  0.37904057  0.37131160    -0.22400
C808        C  0.67419616  0.40948938  0.40981760    -0.22400
C809        C  0.69733743  0.19818409  0.59411139    -0.22400
C810        C  0.69027612  0.22791227  0.63270635    -0.22400
C811        C  0.70576873  0.30723950  0.36802870    -0.17700
C812        C  0.72235971  0.19960041  0.50136882    -0.17700
C813        C  0.69859163  0.30441959  0.63855531    -0.17700
C814        C  0.69215008  0.41336368  0.50444005    -0.17700
H815        H  0.75578806  0.24028880  0.33283958     0.15200
H816        H  0.76681723  0.18309425  0.40535498     0.15200
H817        H  0.71656669  0.44315384  0.60543100     0.15200
H818        H  0.71987132  0.38444699  0.67778933     0.15200
H819        H  0.67017974  0.38284327  0.33012200     0.13500
H820        H  0.66415621  0.44127708  0.40415298     0.13500
H821        H  0.69419198  0.16501070  0.59876969     0.13500
H822        H  0.68081137  0.22200576  0.67285832     0.13500
H823        H  0.68916423  0.27579127  0.46863209     0.26700
H824        H  0.68169221  0.32992135  0.53550648     0.26700
C825        C  0.66625036  0.32562901  0.78135481    -0.12800
C826        C  0.69333372  0.30256913  0.81012780     0.09400
C827        C  0.72215990  0.27988808  0.78210886    -0.12800
C828        C  0.72396366  0.28054146  0.72665042    -0.12800
C829        C  0.69686490  0.30373230  0.69789625     0.09400
C830        C  0.66797639  0.32620075  0.72592997    -0.12800
H831        H  0.64400745  0.34355687  0.80192475     0.13400
H832        H  0.74368075  0.26223486  0.80327407     0.13400
H833        H  0.74669815  0.26315290  0.70608531     0.13400
H834        H  0.64679929  0.34426789  0.70479275     0.13400
C835        C  0.73196715  0.33441048  0.22601976    -0.12800
C836        C  0.70917870  0.30730499  0.19739914     0.09400
C837        C  0.68633518  0.27933688  0.22507677    -0.12800
C838        C  0.68547141  0.27920626  0.28042110    -0.12800
C839        C  0.70743348  0.30705337  0.30906431     0.09400
C840        C  0.73106103  0.33431782  0.28143144    -0.12800
H841        H  0.75014497  0.35584451  0.20539514     0.13400
H842        H  0.66864393  0.25811589  0.20373225     0.13400
H843        H  0.66722923  0.25780576  0.30100937     0.13400
H844        H  0.74862585  0.35561282  0.30284603     0.13400
C845        C  0.00541872  0.28492376  0.78449311    -0.12800
C846        C  0.55562556  0.29530804  0.81678548     0.09400
C847        C  0.58087088  0.27007991  0.78582463    -0.12800
C848        C  0.57908413  0.27072505  0.73050222    -0.12800
C849        C  0.55237891  0.29695701  0.70545583     0.09400
C850        C  0.00509170  0.28568320  0.72922077    -0.12800
H851        H  0.98254106  0.27012394  0.80585305     0.13400
H852        H  0.60171903  0.24981011  0.80454816     0.13400
H853        H  0.59860665  0.25097748  0.70716485     0.13400
H854        H  0.98200702  0.27137365  0.70860180     0.13400
C855        C  0.58516107  0.31063482  0.28946520    -0.12800
C856        C  0.55496339  0.29261295  0.31750150     0.09400
C857        C  0.99998790  0.33257341  0.28596190    -0.12800
C858        C  0.00096324  0.33239377  0.23051798    -0.12800
C859        C  0.55574712  0.29393991  0.20563740     0.09400
C860        C  0.58558624  0.31123354  0.23401283    -0.12800
H861        H  0.60826973  0.32441468  0.31061238     0.13400
H862        H  0.98178041  0.35523306  0.30690723     0.13400
H863        H  0.98334168  0.35483649  0.20965571     0.13400
H864        H  0.60910043  0.32529848  0.21316006     0.13400
C865        C  0.66695747  0.48477792  0.53422991    -0.12800
C866        C  0.69299659  0.46012817  0.50369975     0.09400
C867        C  0.72061662  0.48021825  0.47291473    -0.12800
C868        C  0.72227948  0.52380745  0.47279331    -0.12800
C869        C  0.69625309  0.54846308  0.50327150     0.09400
C870        C  0.66845746  0.52846684  0.53382743    -0.12800
H871        H  0.64536938  0.47014754  0.55824520     0.13400
H872        H  0.74122216  0.46202844  0.44935292     0.13400
H873        H  0.74408633  0.53839373  0.44910829     0.13400
H874        H  0.64793072  0.54674716  0.55737652     0.13400
C875        C  0.67174797  0.52893458  0.96965027    -0.12800
C876        C  0.69789726  0.54963806  0.00118776     0.09400
C877        C  0.72118756  0.52573443  0.03480701    -0.12800
C878        C  0.71879094  0.48220766  0.03629932    -0.12800
C879        C  0.69278306  0.46131396  0.00456889     0.09400
C880        C  0.66912238  0.48538594  0.97143715    -0.12800
H881        H  0.65318927  0.54658023  0.94386901     0.13400
H882        H  0.74153730  0.54084336  0.05965808     0.13400
H883        H  0.73770662  0.46470547  0.06181555     0.13400
H884        H  0.64860232  0.47039020  0.94677429     0.13400
C885        C  0.68527640  0.68818246  0.72573541    -0.12800
C886        C  0.71647712  0.70338761  0.69696701     0.09400
C887        C  0.74717598  0.71948878  0.72476442    -0.12800
C888        C  0.74664503  0.72034169  0.78026377    -0.12800
C889        C  0.71550519  0.70496423  0.80900458     0.09400
C890        C  0.68479131  0.68893511  0.78119240    -0.12800
H891        H  0.66119443  0.67592468  0.70513922     0.13400
H892        H  0.77149645  0.73141925  0.70341190     0.13400
H893        H  0.77066971  0.73266536  0.80089747     0.13400
H894        H  0.66044811  0.67699762  0.80251140     0.13400
C895        C  0.72825071  0.67798021  0.22434282    -0.12800
C896        C  0.70074479  0.70135959  0.19694396     0.09400
C897        C  0.67224570  0.72397328  0.22554782    -0.12800
C898        C  0.67157957  0.72344866  0.28100150    -0.12800
C899        C  0.69948868  0.70042429  0.30838472     0.09400
C900        C  0.72768210  0.67758730  0.27960227    -0.12800
H901        H  0.75051196  0.66056682  0.20282120     0.13400
H902        H  0.65077022  0.74212381  0.20492446     0.13400
H903        H  0.64962791  0.74126892  0.30261010     0.13400
H904        H  0.74956227  0.65992998  0.30007161     0.13400
C905        C  0.01915585  0.52741559  0.47542950    -0.12800
C906        C  0.55596653  0.53826053  0.51268181     0.09400
C907        C  0.58216717  0.51599591  0.47957272    -0.12800
C908        C  0.58355030  0.47225080  0.47922050    -0.12800
C909        C  0.55891759  0.44977089  0.51207989     0.09400
C910        C  0.01710683  0.48387796  0.47539927    -0.12800
H911        H  0.99941504  0.54548952  0.45174811     0.13400
H912        H  0.60161666  0.53250240  0.45408730     0.13400
H913        H  0.60390862  0.45586019  0.45337907     0.13400
H914        H  0.99575827  0.46921643  0.45179952     0.13400
C915        C  0.59014649  0.51467821  0.04199019    -0.12800
C916        C  0.56313244  0.53779971  0.01310649     0.09400
C917        C  0.01104709  0.52613006  0.99758756    -0.12800
C918        C  0.00919050  0.48267702  0.99981240    -0.12800
C919        C  0.56414515  0.44913851  0.01140750     0.09400
C920        C  0.59053942  0.47096691  0.04122744    -0.12800
H921        H  0.61089374  0.53049652  0.06532253     0.13400
H922        H  0.98533072  0.54454281  0.99050322     0.13400
H923        H  0.98209563  0.46821028  0.99395401     0.13400
H924        H  0.61134437  0.45401390  0.06416764     0.13400
C925        C  0.00634248  0.69195482  0.78470030    -0.12800
C926        C  0.53987505  0.69116736  0.82351795     0.09400
C927        C  0.56249450  0.71804834  0.79376617    -0.12800
C928        C  0.56162758  0.71725096  0.73841122    -0.12800
C929        C  0.53790384  0.68978053  0.71188296     0.09400
C930        C  0.00663917  0.69479108  0.72954230    -0.12800
H931        H  0.98029391  0.68407690  0.80543140     0.13400
H932        H  0.58113996  0.73925455  0.81344576     0.13400
H933        H  0.57947068  0.73804015  0.71613967     0.13400
H934        H  0.98077905  0.68886583  0.70837733     0.13400
C935        C  0.58126387  0.67505658  0.24061316    -0.16400
C936        C  0.55252268  0.69499501  0.21123957     0.09400
C937        C  0.00245341  0.70412697  0.23135889    -0.12800
C938        C  0.00369167  0.70287946  0.28663295    -0.12800
C939        C  0.54919037  0.69654998  0.32330181     0.09400
C940        C  0.57955745  0.67572585  0.29609431    -0.12800
H941        H  0.60485886  0.65877294  0.22054363     0.13400
H942        H  0.97524491  0.70800934  0.21221280     0.13400
H943        H  0.97738420  0.70600571  0.30958592     0.13400
H944        H  0.60176335  0.65973115  0.31791007     0.13400
C945        C  0.73375929  0.15388073  0.50317788    -0.15900
C946        C  0.72984628  0.12670778  0.46270520    -0.31000
H947        H  0.74458736  0.14181998  0.54018142     0.13200
H948        H  0.71776452  0.13745721  0.42588368     0.13700
C949        C  0.75432092  0.87658270  0.47753178    -0.15900
C950        C  0.72570157  0.85590785  0.50081454    -0.31000
H951        H  0.77717049  0.85956221  0.45652978     0.13200
H952        H  0.70324239  0.87392214  0.52143014     0.13700
C953        C  0.73393312  0.12677596  0.03473364    -0.15900
C954        C  0.73500907  0.15560106  0.99618549    -0.31000
H955        H  0.72309261  0.13536144  0.07389344     0.13200
H956        H  0.74461375  0.14535686  0.95697707     0.13700
C957        C  0.73299661  0.85548552  0.01355457    -0.15900
C958        C  0.75485165  0.87934139  0.98249669    -0.31000
H959        H  0.71793595  0.87047548  0.04686360     0.13200
H960        H  0.76985329  0.86590681  0.94821302     0.13700
C961        C  0.51306675  0.11938702  0.54502468    -0.15900
C962        C  0.50985098  0.14907325  0.50779518    -0.31000
H963        H  0.52578277  0.12651174  0.58266184     0.13200
H964        H  0.98751182  0.14660610  0.55462154     0.13700
C965        C  0.50315540  0.87191562  0.49398883    -0.15900
C966        C  0.51920475  0.84557511  0.52902080    -0.31000
H967        H  0.99121742  0.86719995  0.57025683     0.13200
H968        H  0.52961914  0.85867927  0.56560015     0.13700
C969        C  0.88398150  0.00641632  0.51059181    -0.15900
C970        C  0.86288709  0.00633206  0.46684989    -0.31000
H971        H  0.86999227  0.00746118  0.54930438     0.13200
H972        H  0.87686393  0.00587706  0.42813229     0.13700
C973        C  0.63464404  0.99589774  0.47121388    -0.15900
C974        C  0.61416316  0.99383989  0.51631325    -0.31000
H975        H  0.62055556  0.99654211  0.43329578     0.13200
H976        H  0.62837296  0.99251346  0.55411687     0.13700
C977        C  0.53175283  0.14201677  0.01215636    -0.15900
C978        C  0.50068142  0.12231317  0.99544494    -0.31000
H979        H  0.55471764  0.12327229  0.02892323     0.13200
H980        H  0.98925682  0.14436401  0.93168300     0.13700
C981        C  0.51444690  0.84421604  0.02217923    -0.15900
C982        C  0.51900142  0.87116842  0.98200389    -0.31000
H983        H  0.99360394  0.86634537  0.04338909     0.13200
H984        H  0.52990007  0.85975586  0.94398368     0.13700
C985        C  0.86686497  0.00618826  0.01185249    -0.15900
C986        C  0.88865576  0.00270829  0.96781046    -0.31000
H987        H  0.88009935  0.00739072  0.05033285     0.13200
H988        H  0.87534816  0.00055650  0.92945278     0.13700
C989        C  0.61641767  0.00383471  0.97010498    -0.15900
C990        C  0.63913067  0.99744719  0.01143268    -0.31000
H991        H  0.62825482  0.01067014  0.93124145     0.13200
H992        H  0.62678981  0.99055177  0.05002272     0.13700
loop_ 
_geom_bond_atom_site_label_1 
_geom_bond_atom_site_label_2 
_geom_bond_distance 
_geom_bond_site_symmetry_2 
_ccdc_geom_bond_type 
O1            V9   1.901       .  S
O1           C11   1.267   1_556  A
O2          V505   1.889       .  S
O2           C12   1.261       .  A
O3            V9   1.907       .  S
O3          C509   1.265       .  A
O4          V505   1.906   1_655  S
O4           C14   1.265       .  A
O5          V506   1.919   1_545  S
O5          C510   1.269   1_554  A
O6           V10   1.914   1_565  S
O6           C13   1.267   1_554  A
O7           V10   1.899       .  S
O7           C12   1.265   1_554  A
O8          V506   1.898       .  S
O8           C11   1.262       .  A
V9          O498   1.903   1_565  S
V9          O500   1.908   1_565  S
V9          V506   2.084   1_556  T
V10         O501   1.908       .  S
V10         O504   1.904   1_455  S
V10         V505   2.086   1_554  T
C11         C490   1.476       .  S
C12         C493   1.464       .  S
C13         O499   1.266       .  A
C13         C486   1.485       .  S
C14         O501   1.266   1_656  A
C14         C482   1.482       .  S
O15          V23   1.901   1_455  S
O15          C25   1.265   1_565  A
O16         V519   1.903       .  S
O16          C26   1.265   1_545  A
O17          V23   1.905   1_545  S
O17          C27   1.264   1_655  A
O18         V519   1.911   1_565  S
O18         C524   1.266       .  A
O19         V520   1.910   1_565  S
O19          C28   1.265   1_655  A
O20          V24   1.908   1_545  S
O20         C523   1.266       .  A
O21          V24   1.911       .  S
O21          C26   1.267       .  A
O22         V520   1.896   1_455  S
O22          C25   1.263       .  A
V23         O512   1.910       .  S
V23         O514   1.903   1_655  S
V23         V520   2.088   1_565  T
V24         O515   1.909       .  S
V24         O518   1.894       .  S
V24         V519   2.086   1_565  T
C25         C478   1.472       .  S
C26         C473   1.486       .  S
C27         O516   1.267   1_455  A
C27         C465   1.484       .  S
C28         O514   1.266       .  A
C28         C469   1.482       .  S
O29          V37   1.910       .  S
O29          C39   1.267   1_554  A
O30          V37   1.899       .  S
O30          C40   1.262       .  A
O31          V37   1.903       .  S
O31          C41   1.265   1_554  A
O32          V37   1.906   1_545  S
O32          C42   1.265       .  A
O33          V38   1.916   1_545  S
O33          C42   1.269   1_556  A
O34          V38   1.914       .  S
O34          C41   1.266       .  A
O35          V38   1.888   1_545  S
O35          C40   1.263   1_546  A
O36          V38   1.890       .  S
O36          C39   1.260       .  A
V37          V38   2.087   1_554  T
C39         C489   1.472       .  S
C40         C494   1.468   1_565  S
C41         C462   1.483       .  S
C42         C457   1.491       .  S
O43          V51   1.911       .  S
O43          C53   1.266       .  A
O44          V51   1.897       .  S
O44          C54   1.265       .  A
O45          V51   1.914       .  S
O45          C55   1.267       .  A
O46          V51   1.915   1_545  S
O46          C56   1.268       .  A
O47          V52   1.907   1_545  S
O47          C56   1.265       .  A
O48          V52   1.907       .  S
O48          C55   1.265       .  A
O49          V52   1.903       .  S
O49          C54   1.264       .  A
O50          V52   1.904       .  S
O50          C53   1.265       .  A
V51          V52   2.085       .  T
C53         C474   1.484       .  S
C54         C477   1.475       .  S
C55         C453   1.482       .  S
C56         C450   1.489       .  S
N57          C62   1.355       .  A
N57          C61   1.359       .  A
N57          H89   1.040       .  S
N58          C65   1.356       .  A
N58          C66   1.354       .  A
N59          C64   1.358       .  A
N59          C63   1.353       .  A
N59          H90   1.037       .  S
N60          C67   1.352       .  A
N60          C68   1.354       .  A
C61          C69   1.387   1_455  A
C61          C77   1.423   1_556  A
C62          C78   1.416       .  A
C62          C70   1.386       .  A
C63          C71   1.387       .  A
C63          C80   1.415       .  A
C64          C79   1.419       .  A
C64          C72   1.387       .  A
C65          C77   1.420       .  A
C65          C73   1.387       .  A
C66          C80   1.417       .  A
C66          C74   1.386       .  A
C67          C75   1.387       .  A
C67          C78   1.415       .  A
C68          C76   1.386       .  A
C68          C79   1.416   1_556  A
C69          C70   1.373   1_655  A
C69          H81   1.082       .  S
C70          H82   1.082   1_455  S
C71          C72   1.374       .  A
C71          H83   1.082       .  S
C72          H84   1.082       .  S
C73          C74   1.374       .  A
C73          H85   1.082       .  S
C74          H86   1.083       .  S
C75          C76   1.376       .  A
C75          H87   1.083       .  S
C76          H88   1.083       .  S
C77         C485   1.511       .  S
C78         C430   1.486       .  S
C79         C420   1.494       .  S
C80         C440   1.485       .  S
N91          C96   1.356       .  A
N91          C95   1.356       .  A
N91         H123   1.036       .  S
N92          C99   1.355       .  A
N92         C100   1.354       .  A
N93          C98   1.358       .  A
N93          C97   1.355       .  A
N93         H124   1.039       .  S
N94         C101   1.352       .  A
N94         C102   1.353       .  A
C95         C103   1.388       .  A
C95         C111   1.419       .  A
C96         C112   1.421       .  A
C96         C104   1.389       .  A
C97         C105   1.390       .  A
C97         C114   1.422       .  A
C98         C113   1.420       .  A
C98         C106   1.385       .  A
C99         C111   1.419       .  A
C99         C107   1.385       .  A
C100        C114   1.420       .  A
C100        C108   1.388       .  A
C101        C109   1.388       .  A
C101        C112   1.418       .  A
C102        C110   1.384       .  A
C102        C113   1.415       .  A
C103        C104   1.372       .  A
C103        H115   1.082       .  S
C104        H116   1.081       .  S
C105        C106   1.373       .  A
C105        H117   1.080       .  S
C106        H118   1.082       .  S
C107        C108   1.376       .  A
C107        H119   1.082       .  S
C108        H120   1.081       .  S
C109        C110   1.372       .  A
C109        H121   1.081       .  S
C110        H122   1.082       .  S
C111        C470   1.498       .  S
C112        C443   1.490       .  S
C113        C410   1.502       .  S
C114        C433   1.492       .  S
N125        C130   1.357       .  A
N125        C129   1.354       .  A
N125        H157   1.040       .  S
N126        C133   1.352       .  A
N126        C134   1.354       .  A
N127        C132   1.354       .  A
N127        C131   1.354       .  A
N127        H158   1.040       .  S
N128        C135   1.355       .  A
N128        C136   1.355       .  A
C129        C137   1.387       .  A
C129        C145   1.416       .  A
C130        C146   1.420   1_556  A
C130        C138   1.387       .  A
C131        C139   1.386       .  A
C131        C148   1.415       .  A
C132        C147   1.416       .  A
C132        C140   1.387       .  A
C133        C145   1.414       .  A
C133        C141   1.386       .  A
C134        C148   1.416   1_556  A
C134        C142   1.387       .  A
C135        C143   1.388       .  A
C135        C146   1.419       .  A
C136        C144   1.385       .  A
C136        C147   1.416       .  A
C137        C138   1.376       .  A
C137        H149   1.083       .  S
C138        H150   1.082       .  S
C139        C140   1.377       .  A
C139        H151   1.082       .  S
C140        H152   1.082       .  S
C141        C142   1.373       .  A
C141        H153   1.082       .  S
C142        H154   1.082       .  S
C143        C144   1.371       .  A
C143        H155   1.082       .  S
C144        H156   1.082       .  S
C145        C393   1.489       .  S
C146        C461   1.502       .  S
C147        C400   1.492       .  S
C148        C380   1.495       .  S
N159        C164   1.356       .  A
N159        C163   1.360       .  A
N159        H191   1.037       .  S
N160        C167   1.355       .  A
N160        C168   1.353       .  A
N161        C166   1.359       .  A
N161        C165   1.354       .  A
N161        H192   1.041       .  S
N162        C169   1.353       .  A
N162        C170   1.355       .  A
C163        C171   1.389       .  A
C163        C179   1.430       .  A
C164        C180   1.426       .  A
C164        C172   1.386       .  A
C165        C173   1.386       .  A
C165        C182   1.417       .  A
C166        C181   1.421       .  A
C166        C174   1.387       .  A
C167        C179   1.422       .  A
C167        C175   1.388       .  A
C168        C182   1.417       .  A
C168        C176   1.386       .  A
C169        C177   1.388       .  A
C169        C180   1.422       .  A
C170        C178   1.385       .  A
C170        C181   1.419       .  A
C171        C172   1.374       .  A
C171        H183   1.079       .  S
C172        H184   1.081       .  S
C173        C174   1.375       .  A
C173        H185   1.082       .  S
C174        H186   1.082       .  S
C175        C176   1.373       .  A
C175        H187   1.082       .  S
C176        H188   1.082       .  S
C177        C178   1.375       .  A
C177        H189   1.082       .  S
C178        H190   1.082       .  S
C179        C454   1.506       .  S
C180        C403   1.497       .  S
C181        C373   1.505       .  S
C182        C390   1.490       .  S
N193        C198   1.356       .  A
N193        C197   1.357       .  A
N193        H225   1.039       .  S
N194        C201   1.354       .  A
N194        C202   1.352       .  A
N195        C200   1.356       .  A
N195        C199   1.354       .  A
N195        H226   1.038       .  S
N196        C203   1.355       .  A
N196        C204   1.357       .  A
C197        C205   1.387   1_455  A
C197        C213   1.420       .  A
C198        C214   1.421       .  A
C198        C206   1.387   1_455  A
C199        C207   1.386       .  A
C199        C216   1.417       .  A
C200        C215   1.422   1_556  A
C200        C208   1.389       .  A
C201        C213   1.418   1_556  A
C201        C209   1.387       .  A
C202        C216   1.412       .  A
C202        C210   1.385       .  A
C203        C211   1.387       .  A
C203        C214   1.423       .  A
C204        C212   1.386       .  A
C204        C215   1.422       .  A
C205        C206   1.377       .  A
C205        H217   1.082       .  S
C206        H218   1.082       .  S
C207        C208   1.375       .  A
C207        H219   1.082       .  S
C208        H220   1.081       .  S
C209        C210   1.373       .  A
C209        H221   1.082       .  S
C210        H222   1.083       .  S
C211        C212   1.375       .  A
C211        H223   1.082       .  S
C212        H224   1.081       .  S
C213        C481   1.503       .  S
C214        C363   1.502       .  S
C215        C423   1.499       .  S
C216        C350   1.489       .  S
N227        C232   1.352       .  A
N227        C231   1.354       .  A
N227        H259   1.041       .  S
N228        C235   1.356       .  A
N228        C236   1.352       .  A
N229        C234   1.358       .  A
N229        C233   1.356       .  A
N229        H260   1.040       .  S
N230        C237   1.352       .  A
N230        C238   1.354       .  A
C231        C239   1.388       .  A
C231        C247   1.415       .  A
C232        C248   1.413       .  A
C232        C240   1.387       .  A
C233        C241   1.388       .  A
C233        C250   1.423       .  A
C234        C249   1.421       .  A
C234        C242   1.386       .  A
C235        C247   1.420       .  A
C235        C243   1.386   1_455  A
C236        C250   1.417       .  A
C236        C244   1.386   1_455  A
C237        C245   1.386       .  A
C237        C248   1.414       .  A
C238        C246   1.386       .  A
C238        C249   1.416       .  A
C239        C240   1.375       .  A
C239        H251   1.082       .  S
C240        H252   1.083       .  S
C241        C242   1.379       .  A
C241        H253   1.082       .  S
C242        H254   1.082       .  S
C243        C244   1.377       .  A
C243        H255   1.081       .  S
C244        H256   1.082       .  S
C245        C246   1.374       .  A
C245        H257   1.082       .  S
C246        H258   1.082       .  S
C247        C466   1.503   1_455  S
C248        C353   1.487       .  S
C249        C413   1.502       .  S
C250        C360   1.496       .  S
N261        C266   1.355       .  A
N261        C265   1.360       .  A
N261        H293   1.042       .  S
N262        C269   1.356       .  A
N262        C270   1.355       .  A
N263        C268   1.355       .  A
N263        C267   1.352       .  A
N263        H294   1.042       .  S
N264        C271   1.353       .  A
N264        C272   1.355       .  A
C265        C273   1.388       .  A
C265        C281   1.427   1_554  A
C266        C282   1.420       .  A
C266        C274   1.385       .  A
C267        C275   1.387       .  A
C267        C284   1.415       .  A
C268        C283   1.419   1_556  A
C268        C276   1.388       .  A
C269        C281   1.419       .  A
C269        C277   1.387       .  A
C270        C284   1.416       .  A
C270        C278   1.385       .  A
C271        C279   1.387       .  A
C271        C282   1.417       .  A
C272        C280   1.385       .  A
C272        C283   1.416       .  A
C273        C274   1.380       .  A
C273        H285   1.081       .  S
C274        H286   1.082       .  S
C275        C276   1.376       .  A
C275        H287   1.082       .  S
C276        H288   1.082       .  S
C277        C278   1.372       .  A
C277        H289   1.082       .  S
C278        H290   1.082       .  S
C279        C280   1.374       .  A
C279        H291   1.082       .  S
C280        H292   1.082       .  S
C281        C458   1.513       .  S
C282        C340   1.496       .  S
C283        C383   1.499       .  S
C284        C330   1.491       .  S
N295        C300   1.360       .  A
N295        C299   1.355       .  A
N295        H327   1.038       .  S
N296        C303   1.355       .  A
N296        C304   1.357       .  A
N297        C302   1.355       .  A
N297        C301   1.358       .  A
N297        H328   1.039       .  S
N298        C305   1.356       .  A
N298        C306   1.354       .  A
C299        C307   1.386       .  A
C299        C315   1.419       .  A
C300        C316   1.423       .  A
C300        C308   1.387       .  A
C301        C309   1.387       .  A
C301        C318   1.421       .  A
C302        C317   1.417       .  A
C302        C310   1.386       .  A
C303        C315   1.420       .  A
C303        C311   1.387       .  A
C304        C318   1.421       .  A
C304        C312   1.386       .  A
C305        C313   1.387       .  A
C305        C316   1.418       .  A
C306        C314   1.386       .  A
C306        C317   1.416       .  A
C307        C308   1.378       .  A
C307        H319   1.083       .  S
C308        H320   1.082       .  S
C309        C310   1.375       .  A
C309        H321   1.082       .  S
C310        H322   1.082       .  S
C311        C312   1.375       .  A
C311        H323   1.082       .  S
C312        H324   1.082       .  S
C313        C314   1.372       .  A
C313        H325   1.082       .  S
C314        H326   1.082       .  S
C315        C343   1.498       .  S
C316        C449   1.509       .  S
C317        C333   1.493       .  S
C318        C370   1.508       .  S
C329        C330   1.405       .  A
C329        C334   1.401       .  A
C329        H335   1.083       .  S
C330        C331   1.405       .  A
C331        C332   1.399       .  A
C331        H336   1.083       .  S
C332        C333   1.405       .  A
C332        H337   1.083       .  S
C333        C334   1.406       .  A
C334        H338   1.083       .  S
C339        C340   1.407       .  A
C339        C344   1.403       .  A
C339        H345   1.083       .  S
C340        C341   1.404       .  A
C341        C342   1.401       .  A
C341        H346   1.083       .  S
C342        C343   1.406       .  A
C342        H347   1.083       .  S
C343        C344   1.406       .  A
C344        H348   1.083       .  S
C349        C354   1.397       .  A
C349        C846   1.404       .  A
C349        H355   1.083       .  S
C350        C351   1.404       .  A
C350        C845   1.404       .  A
C351        C352   1.399       .  A
C351        H356   1.083       .  S
C352        C353   1.404       .  A
C352        H357   1.083       .  S
C353        C850   1.405       .  A
C354        C849   1.402       .  A
C354        H358   1.083       .  S
C359        C360   1.406       .  A
C359        C364   1.404       .  A
C359        H365   1.083       .  S
C360        C857   1.404   1_455  A
C361        C362   1.400       .  A
C361        C856   1.405       .  A
C361        H366   1.083       .  S
C362        C859   1.406       .  A
C362        H367   1.083       .  S
C363        C364   1.408       .  A
C363        C858   1.406       .  A
C364        H368   1.083       .  S
C369        C370   1.409       .  A
C369        C374   1.405       .  A
C369        H375   1.082       .  S
C370        C371   1.407       .  A
C371        C372   1.403       .  A
C371        H376   1.083       .  S
C372        C373   1.406       .  A
C372        H377   1.083       .  S
C373        C374   1.406       .  A
C374        H378   1.080       .  S
C379        C380   1.405   1_556  A
C379        C384   1.401       .  A
C379        H385   1.083       .  S
C380        C381   1.405       .  A
C381        C382   1.401       .  A
C381        H386   1.083       .  S
C382        C383   1.407       .  A
C382        H387   1.083       .  S
C383        C384   1.406   1_554  A
C384        H388   1.083       .  S
C389        C390   1.405       .  A
C389        C394   1.399       .  A
C389        H395   1.083       .  S
C390        C391   1.405       .  A
C391        C392   1.399       .  A
C391        H396   1.083       .  S
C392        C393   1.404       .  A
C392        H397   1.083       .  S
C393        C394   1.404       .  A
C394        H398   1.083       .  S
C399        C400   1.403       .  A
C399        C404   1.399       .  A
C399        H405   1.083       .  S
C400        C401   1.405       .  A
C401        C402   1.402       .  A
C401        H406   1.083       .  S
C402        C403   1.406       .  A
C402        H407   1.083       .  S
C403        C404   1.405       .  A
C404        H408   1.083       .  S
C409        C414   1.401       .  A
C409        C906   1.406       .  A
C409        H415   1.083       .  S
C410        C411   1.404       .  A
C410        C905   1.406       .  A
C411        C412   1.404       .  A
C411        H416   1.080       .  S
C412        C413   1.407       .  A
C412        H417   1.082       .  S
C413        C910   1.406       .  A
C414        C909   1.406       .  A
C414        H418   1.083       .  S
C419        C420   1.404       .  A
C419        C424   1.406       .  A
C419        H425   1.082       .  S
C420        C917   1.403   1_554  A
C421        C422   1.405       .  A
C421        C916   1.409   1_556  A
C421        H426   1.083       .  S
C422        C919   1.406   1_556  A
C422        H427   1.083       .  S
C423        C424   1.407       .  A
C423        C918   1.406   1_554  A
C424        H428   1.083       .  S
C429        C434   1.400       .  A
C429        C926   1.405       .  A
C429        H435   1.083       .  S
C430        C431   1.404       .  A
C430        C925   1.402       .  A
C431        C432   1.401       .  A
C431        H436   1.083       .  S
C432        C433   1.405       .  A
C432        H437   1.083       .  S
C433        C930   1.406       .  A
C434        C929   1.404       .  A
C434        H438   1.083       .  S
C439        C440   1.402       .  A
C439        C444   1.398       .  A
C439        H445   1.083       .  S
C440        C937   1.403       .  A
C441        C442   1.400       .  A
C441        C936   1.407       .  A
C441        H446   1.083       .  S
C442        C939   1.404       .  A
C442        H447   1.083       .  S
C443        C444   1.403       .  A
C443        C938   1.406       .  A
C444        H448   1.081       .  S
C449        C450   1.349       .  D
C449        H451   1.086       .  S
C450        H452   1.085       .  S
C453        C454   1.349       .  D
C453        H455   1.086       .  S
C454        H456   1.087       .  S
C457        C458   1.349   1_554  D
C457        H459   1.084       .  S
C458        H460   1.086       .  S
C461        C462   1.349   1_554  D
C461        H463   1.087       .  S
C462        H464   1.086       .  S
C465        C466   1.346   1_455  D
C465        H467   1.085       .  S
C466        H964   1.087       .  S
H468        C962   1.087       .  S
C469        C470   1.347       .  D
C469        H967   1.086   1_455  S
C470        H472   1.087       .  S
H471        C965   1.085       .  S
C473        C474   1.349       .  D
C473        H475   1.086       .  S
C474        H476   1.087   1_565  S
C477        C478   1.343   1_565  D
C477        H479   1.087       .  S
C478        H480   1.087       .  S
C481        C482   1.349   1_454  D
C481        H483   1.087       .  S
C482        H980   1.086       .  S
H484        C978   1.086       .  S
C485        C486   1.351   1_554  D
C485        H983   1.086   1_455  S
C486        H488   1.085       .  S
H487        C981   1.086       .  S
C489        C490   1.341   1_556  D
C489        H491   1.087       .  S
C490        H492   1.087       .  S
C493        C494   1.340   1_556  D
C493        H495   1.087       .  S
C494        H496   1.087   1_545  S
O497        V505   1.895   1_665  S
O497        C507   1.262   1_565  A
O498        C508   1.263       .  A
O499        V505   1.906   1_565  S
O500        C510   1.264       .  A
O502        V506   1.920       .  S
O502        C509   1.269   1_554  A
O503        V506   1.882       .  S
O503        C508   1.263   1_564  A
O504        C507   1.266   1_554  A
C507        C986   1.474       .  S
C508        C989   1.470       .  S
C509        C982   1.491       .  S
C510        C978   1.487       .  S
O511        V519   1.896   1_565  S
O511        C521   1.264       .  A
O512        C522   1.268   1_565  A
O513        V519   1.914       .  S
O513        C523   1.268       .  A
O515        C524   1.267       .  A
O516        V520   1.909       .  S
O517        V520   1.896       .  S
O517        C522   1.262       .  A
O518        C521   1.262       .  A
C521        C974   1.467       .  S
C522        C969   1.478       .  S
C523        C961   1.490       .  S
C524        C965   1.488       .  S
O525        V533   1.895   1_545  S
O525        C535   1.261       .  A
O526        V533   1.879       .  S
O526        C536   1.258       .  A
O527        V533   1.909       .  S
O527        C537   1.268   1_554  A
O528        V533   1.910   1_545  S
O528        C538   1.267       .  A
O529        V534   1.909       .  S
O529        C538   1.266   1_556  A
O530        V534   1.908   1_565  S
O530        C537   1.264       .  A
O531        V534   1.905       .  S
O531        C536   1.266   1_546  A
O532        V534   1.905       .  S
O532        C535   1.267   1_556  A
V533        V534   2.088   1_564  T
C535        C985   1.474       .  S
C536        C990   1.460       .  S
C537        C958   1.485       .  S
C538        C953   1.489       .  S
O539        V547   1.907       .  S
O539        C549   1.267       .  A
O540        V547   1.894       .  S
O540        C550   1.265   1_545  A
O541        V547   1.910   1_565  S
O541        C551   1.265       .  A
O542        V547   1.914       .  S
O542        C552   1.267       .  A
O543        V548   1.909       .  S
O543        C552   1.266       .  A
O544        V548   1.910   1_565  S
O544        C551   1.266       .  A
O545        V548   1.894   1_565  S
O545        C550   1.261       .  A
O546        V548   1.898       .  S
O546        C549   1.263       .  A
V547        V548   2.086       .  T
C549        C970   1.478       .  S
C550        C973   1.467       .  S
C551        C949   1.482       .  S
C552        C946   1.489       .  S
N553        C558   1.354       .  A
N553        C557   1.359       .  A
N553        H585   1.042       .  S
N554        C561   1.358       .  A
N554        C562   1.355       .  A
N555        C560   1.360       .  A
N555        C559   1.356       .  A
N555        H586   1.040       .  S
N556        C563   1.353       .  A
N556        C564   1.355       .  A
C557        C565   1.388       .  A
C557        C573   1.423   1_556  A
C558        C574   1.416       .  A
C558        C566   1.385       .  A
C559        C567   1.387       .  A
C559        C576   1.424       .  A
C560        C575   1.425       .  A
C560        C568   1.387       .  A
C561        C573   1.420       .  A
C561        C569   1.386       .  A
C562        C576   1.420       .  A
C562        C570   1.387       .  A
C563        C571   1.387       .  A
C563        C574   1.416       .  A
C564        C572   1.386       .  A
C564        C575   1.418   1_556  A
C565        C566   1.379       .  A
C565        H577   1.082       .  S
C566        H578   1.082       .  S
C567        C568   1.377       .  A
C567        H579   1.082       .  S
C568        H580   1.082       .  S
C569        C570   1.372       .  A
C569        H581   1.082       .  S
C570        H582   1.082       .  S
C571        C572   1.374       .  A
C571        H583   1.082       .  S
C572        H584   1.082       .  S
C573        C981   1.514       .  S
C574        C926   1.491       .  S
C575        C916   1.507       .  S
C576        C936   1.499       .  S
N587        C592   1.356       .  A
N587        C591   1.359       .  A
N587        H619   1.041       .  S
N588        C595   1.355       .  A
N588        C596   1.354       .  A
N589        C594   1.355       .  A
N589        C593   1.355       .  A
N589        H620   1.039       .  S
N590        C597   1.354       .  A
N590        C598   1.357       .  A
C591        C599   1.388       .  A
C591        C607   1.425       .  A
C592        C608   1.420       .  A
C592        C600   1.386       .  A
C593        C601   1.388       .  A
C593        C610   1.419       .  A
C594        C609   1.419       .  A
C594        C602   1.387       .  A
C595        C607   1.418       .  A
C595        C603   1.388       .  A
C596        C610   1.416       .  A
C596        C604   1.386       .  A
C597        C605   1.386       .  A
C597        C608   1.418       .  A
C598        C606   1.386       .  A
C598        C609   1.420       .  A
C599        C600   1.379       .  A
C599        H611   1.081       .  S
C600        H612   1.082       .  S
C601        C602   1.377       .  A
C601        H613   1.082       .  S
C602        H614   1.082       .  S
C603        C604   1.371       .  A
C603        H615   1.082       .  S
C604        H616   1.082       .  S
C605        C606   1.373       .  A
C605        H617   1.082       .  S
C606        H618   1.082       .  S
C607        C966   1.506       .  S
C608        C939   1.497       .  S
C609        C906   1.503       .  S
C610        C929   1.493       .  S
N621        C626   1.360       .  A
N621        C625   1.356       .  A
N621        H653   1.039       .  S
N622        C629   1.354       .  A
N622        C630   1.358       .  A
N623        C628   1.353       .  A
N623        C627   1.355       .  A
N623        H654   1.039       .  S
N624        C631   1.354       .  A
N624        C632   1.354       .  A
C625        C633   1.388       .  A
C625        C641   1.424       .  A
C626        C642   1.426   1_556  A
C626        C634   1.387       .  A
C627        C635   1.386       .  A
C627        C644   1.418       .  A
C628        C643   1.415       .  A
C628        C636   1.387       .  A
C629        C641   1.421       .  A
C629        C637   1.387       .  A
C630        C644   1.421   1_556  A
C630        C638   1.385       .  A
C631        C639   1.388       .  A
C631        C642   1.418       .  A
C632        C640   1.385       .  A
C632        C643   1.414       .  A
C633        C634   1.380       .  A
C633        H645   1.082       .  S
C634        H646   1.082       .  S
C635        C636   1.376       .  A
C635        H647   1.081       .  S
C636        H648   1.082       .  S
C637        C638   1.376       .  A
C637        H649   1.082       .  S
C638        H650   1.082       .  S
C639        C640   1.371       .  A
C639        H651   1.082       .  S
C640        H652   1.082       .  S
C641        C889   1.497       .  S
C642        C957   1.503       .  S
C643        C896   1.487       .  S
C644        C876   1.505       .  S
N655        C660   1.355       .  A
N655        C659   1.359       .  A
N655        H687   1.039       .  S
N656        C663   1.358       .  A
N656        C664   1.356       .  A
N657        C662   1.358       .  A
N657        C661   1.355       .  A
N657        H688   1.039       .  S
N658        C665   1.353       .  A
N658        C666   1.356       .  A
C659        C667   1.390       .  A
C659        C675   1.427       .  A
C660        C676   1.421       .  A
C660        C668   1.385       .  A
C661        C669   1.387       .  A
C661        C678   1.422       .  A
C662        C677   1.424       .  A
C662        C670   1.387       .  A
C663        C675   1.423       .  A
C663        C671   1.387       .  A
C664        C678   1.422       .  A
C664        C672   1.386       .  A
C665        C673   1.387       .  A
C665        C676   1.418       .  A
C666        C674   1.386       .  A
C666        C677   1.420       .  A
C667        C668   1.373       .  A
C667        H679   1.078       .  S
C668        H680   1.082       .  S
C669        C670   1.378       .  A
C669        H681   1.082       .  S
C670        H682   1.082       .  S
C671        C672   1.372       .  A
C671        H683   1.082       .  S
C672        H684   1.082       .  S
C673        C674   1.373       .  A
C673        H685   1.082       .  S
C674        H686   1.082       .  S
C675        C950   1.505       .  S
C676        C899   1.490       .  S
C677        C869   1.503       .  S
C678        C886   1.497       .  S
N689        C694   1.356       .  A
N689        C693   1.359       .  A
N689        H721   1.038       .  S
N690        C697   1.358       .  A
N690        C698   1.354       .  A
N691        C696   1.358       .  A
N691        C695   1.354       .  A
N691        H722   1.037       .  S
N692        C699   1.354       .  A
N692        C700   1.357       .  A
C693        C701   1.388       .  A
C693        C709   1.423       .  A
C694        C710   1.421       .  A
C694        C702   1.386       .  A
C695        C703   1.390       .  A
C695        C712   1.424       .  A
C696        C711   1.421   1_556  A
C696        C704   1.385       .  A
C697        C709   1.424   1_556  A
C697        C705   1.387       .  A
C698        C712   1.424       .  A
C698        C706   1.387       .  A
C699        C707   1.386       .  A
C699        C710   1.418       .  A
C700        C708   1.386       .  A
C700        C711   1.420       .  A
C701        C702   1.374       .  A
C701        H713   1.081       .  S
C702        H714   1.082       .  S
C703        C704   1.376       .  A
C703        H715   1.081       .  S
C704        H716   1.082       .  S
C705        C706   1.374       .  A
C705        H717   1.080       .  S
C706        H718   1.082       .  S
C707        C708   1.373       .  A
C707        H719   1.082       .  S
C708        H720   1.082       .  S
C709        C977   1.507       .  S
C710        C859   1.496       .  S
C711        C919   1.506       .  S
C712        C846   1.492       .  S
N723        C728   1.352       .  A
N723        C727   1.360       .  A
N723        H755   1.041       .  S
N724        C731   1.356       .  A
N724        C732   1.355       .  A
N725        C730   1.357       .  A
N725        C729   1.353       .  A
N725        H756   1.040       .  S
N726        C733   1.353       .  A
N726        C734   1.355       .  A
C727        C735   1.389       .  A
C727        C743   1.426       .  A
C728        C744   1.416       .  A
C728        C736   1.385       .  A
C729        C737   1.386       .  A
C729        C746   1.417       .  A
C730        C745   1.421       .  A
C730        C738   1.388       .  A
C731        C743   1.419       .  A
C731        C739   1.387       .  A
C732        C746   1.417       .  A
C732        C740   1.385       .  A
C733        C741   1.387       .  A
C733        C744   1.417       .  A
C734        C742   1.385       .  A
C734        C745   1.417       .  A
C735        C736   1.379       .  A
C735        H747   1.081       .  S
C736        H748   1.083       .  S
C737        C738   1.376       .  A
C737        H749   1.082       .  S
C738        H750   1.082       .  S
C739        C740   1.373       .  A
C739        H751   1.082       .  S
C740        H752   1.082       .  S
C741        C742   1.374       .  A
C741        H753   1.082       .  S
C742        H754   1.082       .  S
C743        C962   1.512       .  S
C744        C849   1.487       .  S
C745        C909   1.503       .  S
C746        C856   1.494       .  S
N757        C762   1.352       .  A
N757        C761   1.358       .  A
N757        H789   1.042       .  S
N758        C765   1.356       .  A
N758        C766   1.354       .  A
N759        C764   1.359       .  A
N759        C763   1.356       .  A
N759        H790   1.041       .  S
N760        C767   1.355       .  A
N760        C768   1.357       .  A
C761        C769   1.389       .  A
C761        C777   1.423       .  A
C762        C778   1.414       .  A
C762        C770   1.385       .  A
C763        C771   1.386       .  A
C763        C780   1.420       .  A
C764        C779   1.423   1_556  A
C764        C772   1.387       .  A
C765        C777   1.420   1_556  A
C765        C773   1.387       .  A
C766        C780   1.417       .  A
C766        C774   1.386       .  A
C767        C775   1.386       .  A
C767        C778   1.418       .  A
C768        C776   1.386       .  A
C768        C779   1.421       .  A
C769        C770   1.378       .  A
C769        H781   1.081       .  S
C770        H782   1.083       .  S
C771        C772   1.375       .  A
C771        H783   1.082       .  S
C772        H784   1.082       .  S
C773        C774   1.375       .  A
C773        H785   1.082       .  S
C774        H786   1.082       .  S
C775        C776   1.374       .  A
C775        H787   1.082       .  S
C776        H788   1.081       .  S
C777        C954   1.510   1_554  S
C778        C836   1.491       .  S
C779        C879   1.510       .  S
C780        C826   1.500       .  S
N791        C796   1.359       .  A
N791        C795   1.354       .  A
N791        H823   1.038       .  S
N792        C799   1.353       .  A
N792        C800   1.354       .  A
N793        C798   1.356       .  A
N793        C797   1.360       .  A
N793        H824   1.037       .  S
N794        C801   1.357       .  A
N794        C802   1.355       .  A
C795        C803   1.385       .  A
C795        C811   1.416       .  A
C796        C812   1.423       .  A
C796        C804   1.388       .  A
C797        C805   1.387       .  A
C797        C814   1.423       .  A
C798        C813   1.422       .  A
C798        C806   1.387       .  A
C799        C811   1.416       .  A
C799        C807   1.387       .  A
C800        C814   1.417       .  A
C800        C808   1.386       .  A
C801        C809   1.386       .  A
C801        C812   1.420       .  A
C802        C810   1.386       .  A
C802        C813   1.420       .  A
C803        C804   1.376       .  A
C803        H815   1.083       .  S
C804        H816   1.081       .  S
C805        C806   1.379       .  A
C805        H817   1.082       .  S
C806        H818   1.082       .  S
C807        C808   1.375       .  A
C807        H819   1.082       .  S
C808        H820   1.082       .  S
C809        C810   1.374       .  A
C809        H821   1.082       .  S
C810        H822   1.082       .  S
C811        C839   1.491       .  S
C812        C945   1.512       .  S
C813        C829   1.501       .  S
C814        C866   1.504       .  S
C825        C826   1.405       .  A
C825        C830   1.402       .  A
C825        H831   1.080       .  S
C826        C827   1.407       .  A
C827        C828   1.403       .  A
C827        H832   1.083       .  S
C828        C829   1.407       .  A
C828        H833   1.083       .  S
C829        C830   1.405       .  A
C830        H834   1.081       .  S
C835        C836   1.405       .  A
C835        C840   1.401       .  A
C835        H841   1.083       .  S
C836        C837   1.404       .  A
C837        C838   1.399       .  A
C837        H842   1.083       .  S
C838        C839   1.404       .  A
C838        H843   1.083       .  S
C839        C840   1.405       .  A
C840        H844   1.083       .  S
C845        C850   1.398       .  A
C845        H851   1.083   1_455  S
C846        C847   1.406       .  A
C847        C848   1.402       .  A
C847        H852   1.083       .  S
C848        C849   1.405       .  A
C848        H853   1.083       .  S
C850        H854   1.083   1_455  S
C855        C856   1.406       .  A
C855        C860   1.402       .  A
C855        H861   1.083       .  S
C857        C858   1.401   1_655  A
C857        H862   1.083       .  S
C858        H863   1.083   1_455  S
C859        C860   1.406       .  A
C860        H864   1.083       .  S
C865        C866   1.407       .  A
C865        C870   1.406       .  A
C865        H871   1.083       .  S
C866        C867   1.407       .  A
C867        C868   1.404       .  A
C867        H872   1.083       .  S
C868        C869   1.406       .  A
C868        H873   1.083       .  S
C869        C870   1.407       .  A
C870        H874   1.083       .  S
C875        C876   1.406   1_556  A
C875        C880   1.406       .  A
C875        H881   1.082       .  S
C876        C877   1.407       .  A
C877        C878   1.404       .  A
C877        H882   1.083       .  S
C878        C879   1.408       .  A
C878        H883   1.083       .  S
C879        C880   1.410   1_554  A
C880        H884   1.083       .  S
C885        C886   1.405       .  A
C885        C890   1.402       .  A
C885        H891   1.083       .  S
C886        C887   1.406       .  A
C887        C888   1.403       .  A
C887        H892   1.083       .  S
C888        C889   1.405       .  A
C888        H893   1.083       .  S
C889        C890   1.406       .  A
C890        H894   1.083       .  S
C895        C896   1.402       .  A
C895        C900   1.397       .  A
C895        H901   1.083       .  S
C896        C897   1.405       .  A
C897        C898   1.402       .  A
C897        H902   1.083       .  S
C898        C899   1.406       .  A
C898        H903   1.083       .  S
C899        C900   1.403       .  A
C900        H904   1.083       .  S
C905        C910   1.403       .  A
C905        H911   1.083   1_455  S
C906        C907   1.408       .  A
C907        C908   1.405       .  A
C907        H912   1.083       .  S
C908        C909   1.407       .  A
C908        H913   1.082       .  S
C910        H914   1.083   1_455  S
C915        C916   1.406       .  A
C915        C920   1.404       .  A
C915        H921   1.082       .  S
C917        C918   1.401       .  A
C917        H922   1.083   1_455  S
C918        H923   1.083   1_455  S
C919        C920   1.405       .  A
C920        H924   1.079       .  S
C925        C930   1.398       .  A
C925        H931   1.083   1_455  S
C926        C927   1.404       .  A
C927        C928   1.400       .  A
C927        H932   1.083       .  S
C928        C929   1.406       .  A
C928        H933   1.083       .  S
C930        H934   1.083   1_455  S
C935        C936   1.406       .  A
C935        C940   1.403       .  A
C935        H941   1.082       .  S
C937        C938   1.400       .  A
C937        H942   1.083   1_455  S
C938        H943   1.083   1_455  S
C939        C940   1.407       .  A
C940        H944   1.083       .  S
C945        C946   1.351       .  D
C945        H947   1.086       .  S
C946        H948   1.085       .  S
C949        C950   1.349       .  D
C949        H951   1.085       .  S
C950        H952   1.087       .  S
C953        C954   1.351   1_554  D
C953        H955   1.085       .  S
C954        H956   1.087       .  S
C957        C958   1.347   1_554  D
C957        H959   1.087       .  S
C958        H960   1.086       .  S
C961        C962   1.349       .  D
C961        H963   1.084       .  S
C965        C966   1.349       .  D
C966        H968   1.087       .  S
C969        C970   1.342       .  D
C969        H971   1.087       .  S
C970        H972   1.087       .  S
C973        C974   1.340       .  D
C973        H975   1.087       .  S
C974        H976   1.087       .  S
C977        C978   1.350   1_554  D
C977        H979   1.086       .  S
C981        C982   1.350   1_554  D
C982        H984   1.085       .  S
C985        C986   1.341   1_554  D
C985        H987   1.087       .  S
C986        H988   1.087       .  S
C989        C990   1.339   1_546  D
C989        H991   1.086       .  S
C990        H992   1.087       .  S
