geometry optimzed in LAMMPS
_audit_creation_date              2020-11-30 
_audit_creation_method            'lammps2cif' 
_symmetry_space_group_name_H-M    'P1' 
_symmetry_Int_Tables_number       1 
_symmetry_cell_setting            triclinic 
loop_ 
_symmetry_equiv_pos_as_xyz 
  x,y,z 
_cell_length_a                    35.80623473 
_cell_length_b                    35.668453287069724 
_cell_length_c                    50.10523905176431 
_cell_angle_alpha                 89.84649166612803 
_cell_angle_beta                  90.1455264768162 
_cell_angle_gamma                 119.26524536210647 
loop_ 
_atom_site_label 
_atom_site_type_symbol 
_atom_site_fract_x 
_atom_site_fract_y 
_atom_site_fract_z 
_atom_site_charge 
C1          C  0.99962975  0.00203193  0.77697191     0.46200
H2          H  0.99965168  0.00329794  0.79912192    -0.02900
C3          C  0.99934846  0.99933237  0.72494879     0.46200
H4          H  0.99941766  0.99827140  0.70278155    -0.02900
C5          C  0.95975676  0.96293150  0.76520543    -0.16600
C6          C  0.00115850  0.04175563  0.76348542    -0.16300
C7          C  0.03808311  0.99939083  0.76519654    -0.16700
C8          C  0.95966885  0.96168929  0.73772175    -0.16700
C9          C  0.00075561  0.04011274  0.73612852    -0.16200
C10         C  0.03784163  0.99820330  0.73779684    -0.16600
O11         O  0.64605302  0.24392160  0.01883549    -0.77800
C12         C  0.57536652  0.31435332  0.03112262     0.83200
O13         O  0.61196754  0.28594933  0.93147782    -0.78900
O14         O  0.65487442  0.41620833  0.97112551    -0.80400
O15         O  0.75094887  0.39292839  0.02668099    -0.80200
O16         O  0.71644869  0.28786576  0.02141273    -0.78800
Zn17       Zn  0.62182791  0.27680860  0.99895877     1.55700
O18         O  0.70516501  0.41846351  0.02705650    -0.80200
Cd19       Cd  0.72363399  0.34135041  0.00053420     1.59700
Cd20       Cd  0.66881099  0.33611274  0.94712717     1.59600
O21         O  0.76408622  0.35028913  0.96862103    -0.80200
O22         O  0.66723225  0.33228406  0.98718307    -1.90700
Cd23       Cd  0.65677240  0.37824854  0.00159180     1.59900
O24         O  0.72128057  0.33159354  0.93281427    -0.80200
O25         O  0.60130205  0.35269316  0.02384570    -0.78800
C26         C  0.58531721  0.25062209  0.94259265     0.83700
C27         C  0.68327848  0.25212900  0.02655799     0.83400
O28         O  0.57956245  0.28258335  0.02344111    -0.77800
C29         C  0.73945441  0.41954682  0.03496780     0.84200
O30         O  0.58807416  0.24297080  0.96715636    -0.77900
C31         C  0.75714349  0.34149654  0.94379999     0.84300
C32         C  0.66591683  0.42101009  0.94664471     0.84600
O33         O  0.67529827  0.39518654  0.93462917    -0.80300
C34         C  0.73222868  0.74980438  0.86389398     0.80900
N35         N  0.72931254  0.71038115  0.86725993    -0.77400
C36         C  0.69671369  0.67966568  0.88195065     0.83400
N37         N  0.66744092  0.68847393  0.89289621    -0.77300
C38         C  0.66942762  0.72693975  0.88943613     0.83500
N39         N  0.70217025  0.75804092  0.87509082    -0.79100
O40         O  0.28237089  0.70200826  0.05821114    -0.77800
C41         C  0.41588569  0.73892961  0.06299658     0.83200
O42         O  0.31424585  0.71336058  0.96644225    -0.78900
O43         O  0.41780799  0.66508550  0.99839194    -0.80400
O44         O  0.28775967  0.57404312  0.05532055    -0.80200
O45         O  0.23761637  0.63217154  0.05241461    -0.78800
Zn46       Zn  0.33240275  0.71522409  0.03366960     1.55700
O47         O  0.35750749  0.59805256  0.04911108    -0.80200
Cd48       Cd  0.27508412  0.61343799  0.03125783     1.59700
Cd49       Cd  0.32840319  0.66564766  0.97828134     1.59600
O50         O  0.24177414  0.57531987  0.99960538    -0.80200
O51         O  0.32853099  0.66361747  0.01836553    -1.90700
Cd52       Cd  0.37761995  0.65642032  0.03014440     1.59900
O53         O  0.28120990  0.60659428  0.96337498    -0.74400
O54         O  0.41496789  0.70392944  0.05677420    -0.78800
C55         C  0.31657608  0.74508529  0.97953751     0.83700
C56         C  0.24647002  0.66843429  0.06231442     0.83400
O57         O  0.38772006  0.74830285  0.05465496    -0.77800
C58         C  0.32133861  0.57088418  0.05878922     0.84200
O59         O  0.32650144  0.75066708  0.00425147    -0.77900
C60         C  0.24911555  0.57542189  0.97473920     0.84300
C61         C  0.41926953  0.67643522  0.97409250     0.84600
O62         O  0.38860106  0.67958002  0.96316335    -0.80300
C63         C  0.27067128  0.25278312  0.14382038     0.80900
N64         N  0.27231010  0.29162794  0.14120826    -0.77400
C65         C  0.30821745  0.32601838  0.13176267     0.83400
N66         N  0.34233080  0.32149752  0.12520646    -0.77300
C67         C  0.34111898  0.28315510  0.12712689     0.83500
N68         N  0.30499250  0.24828252  0.13629542    -0.79100
C69         C  0.25607788  0.99318681  0.86626272     0.80900
N70         N  0.29576129  0.02832249  0.86952945    -0.77400
C71         C  0.32528144  0.02543728  0.88534746     0.83400
N72         N  0.31489624  0.98768560  0.89750641    -0.77300
C73         C  0.27620740  0.95264992  0.89408442     0.83500
N74         N  0.24642950  0.95532392  0.87857942    -0.79100
C75         C  0.97979379  0.71778111  0.15098557     0.80900
N76         N  0.01670039  0.71611028  0.14732732    -0.77400
C77         C  0.01530769  0.68053302  0.13663244     0.83400
N78         N  0.97708066  0.64672786  0.13008149    -0.77300
C79         C  0.94025250  0.64796962  0.13320984     0.83500
N80         N  0.94139959  0.68383644  0.14346210    -0.79100
C81         C  0.01432550  0.27984606  0.85106642     0.80900
N82         N  0.97888903  0.28467173  0.85394548    -0.77400
C83         C  0.98118488  0.31727768  0.86927297     0.83400
N84         N  0.01844225  0.34437432  0.88146875    -0.77300
C85         C  0.05359537  0.34012724  0.87855930     0.83500
N86         N  0.05161268  0.30762513  0.86352755    -0.79100
C87         C  0.73777913  0.00027322  0.14098113     0.80900
N88         N  0.74157073  0.03746396  0.13044861    -0.77400
C89         C  0.70662659  0.03732161  0.11952837     0.83400
N90         N  0.66884357  0.00052500  0.11919811    -0.77300
C91         C  0.66468481  0.96350094  0.12909850     0.83500
N92         N  0.69928447  0.96320752  0.14003626    -0.79100
O93         O  0.70382428  0.28046059  0.45036225    -0.77800
C94         C  0.74578215  0.41367235  0.44257990     0.83200
O95         O  0.70902449  0.31767568  0.54187476    -0.78900
O96         O  0.66494361  0.42045647  0.50232298    -0.80400
O97         O  0.57923864  0.28942803  0.44555800    -0.80200
O98         O  0.63345514  0.23700285  0.45317524    -0.78800
Zn99       Zn  0.71628447  0.33098099  0.47395673     1.55700
O100        O  0.60512389  0.36011154  0.44962285    -0.80200
Cd101      Cd  0.61441824  0.27582313  0.47255389     1.59700
Cd102      Cd  0.66226978  0.33045018  0.52625997     1.59600
O103        O  0.57269542  0.24368860  0.50324508    -0.80200
O104        O  0.66414918  0.32923078  0.48622391    -1.90700
Cd105      Cd  0.66023344  0.37920074  0.47194385     1.59900
O106        O  0.60205879  0.28370411  0.53961634    -0.80200
O107        O  0.71137163  0.41464842  0.44726067    -0.78800
C108        C  0.74069447  0.31748483  0.53032563     0.83700
C109        C  0.67029040  0.24525382  0.44490486     0.83400
O110        O  0.75312326  0.38492169  0.45250114    -0.77800
C111        C  0.57812686  0.32370479  0.44004986     0.84200
O112        O  0.74760202  0.32453703  0.50539439    -0.77900
C113        C  0.57128347  0.25175024  0.52786544     0.84300
C114        C  0.67246347  0.42172548  0.52728106     0.84600
O115        O  0.67376203  0.39085654  0.53946700    -0.80300
C116        C  0.74651901  0.73486358  0.63832010     0.80900
N117        N  0.70652551  0.73071913  0.63584971    -0.77400
C118        C  0.67632619  0.69825521  0.62073437     0.83400
N119        N  0.68628311  0.67069954  0.60844124    -0.77300
C120        C  0.72520392  0.67399330  0.61089426     0.83500
N121        N  0.75567601  0.70622911  0.62583095    -0.79100
O122        O  0.24596395  0.64421150  0.47759443    -0.77800
C123        C  0.31406595  0.57248536  0.46724281     0.83200
O124        O  0.28409175  0.60819347  0.56638432    -0.78900
O125        O  0.41400030  0.64895653  0.52898046    -0.80400
O126        O  0.39758013  0.74996164  0.47443988    -0.80200
O127        O  0.29207656  0.71422212  0.47411548    -0.78800
Zn128      Zn  0.27666190  0.61909571  0.49920126     1.55700
O129        O  0.42226346  0.70346863  0.47347085    -0.80200
Cd130      Cd  0.34270829  0.72037964  0.49741871     1.59700
Cd131      Cd  0.33460909  0.66513850  0.55125349     1.59600
O132        O  0.34721745  0.75933577  0.52884079    -0.80200
O133        O  0.33246472  0.66375419  0.51115557    -1.90700
Cd134      Cd  0.37883212  0.65330679  0.49740268     1.59900
O135        O  0.32896995  0.71755527  0.56516242    -0.80200
O136        O  0.35253257  0.59836332  0.47417911    -0.78800
C137        C  0.24855839  0.58206328  0.55540004     0.83700
C138        C  0.25606730  0.68157797  0.46879055     0.83400
O139        O  0.28263403  0.57675019  0.47528468    -0.77800
C140        C  0.42482449  0.73908334  0.46667852     0.84200
O141        O  0.24098428  0.58510077  0.53082848    -0.77900
C142        C  0.33774633  0.75283794  0.55354189     0.84300
C143        C  0.41805187  0.66026331  0.55344691     0.84600
O144        O  0.39253791  0.67072367  0.56472811    -0.80300
C145        C  0.26698214  0.01023874  0.64122622     0.80900
N146        N  0.26901868  0.97370145  0.63582811    -0.77400
C147        C  0.30049864  0.97585062  0.61959628     0.83400
N148        N  0.32906595  0.01397332  0.60885921    -0.77300
C149        C  0.32770701  0.05029190  0.61425057     0.83500
N150        N  0.29660691  0.04857014  0.63044539    -0.79100
C151        C  0.99327342  0.26295954  0.64171266     0.80900
N152        N  0.95465692  0.25305562  0.63073410    -0.77400
C153        C  0.94961983  0.28367776  0.61770036     0.83400
N154        N  0.98326221  0.32369132  0.61517824    -0.77300
C155        C  0.02196048  0.33417542  0.62582813     0.83500
N156        N  0.02706045  0.30368319  0.63923381    -0.79100
C157        C  0.00158486  0.72985101  0.35579471     0.80900
N158        N  0.03923306  0.73286477  0.36455941    -0.77400
C159        C  0.03955135  0.69715495  0.37411182     0.83400
N160        N  0.00257352  0.65934265  0.37488932    -0.77300
C161        C  0.96520224  0.65615407  0.36686540     0.83500
N162        N  0.96456733  0.69147663  0.35736312    -0.79100
C163        C  0.26033185  0.26901363  0.35544134     0.80900
N164        N  0.29901938  0.27039020  0.35769765    -0.77400
C165        C  0.33323097  0.30601835  0.36769291     0.83400
N166        N  0.32856453  0.33977104  0.37514295    -0.77300
C167        C  0.29053777  0.33888080  0.37343188     0.83500
N168        N  0.25595355  0.30321530  0.36368912    -0.79100
C169        C  0.72294035  0.98505787  0.35020943     0.80900
N170        N  0.72058190  0.02182266  0.35328111    -0.77400
C171        C  0.68490295  0.02022484  0.36357182     0.83400
N172        N  0.65181613  0.98198046  0.37080657    -0.77300
C173        C  0.65373657  0.94522558  0.36862559     0.83500
N174        N  0.68964120  0.94650168  0.35840334    -0.79100
C175        C  0.99988774  0.99673518  0.22534163     0.46200
H176        H  0.99940167  0.99523261  0.20318342    -0.02900
C177        C  0.00088884  0.00010803  0.27742184     0.46200
H178        H  0.00125631  0.00149684  0.29958392    -0.02900
C179        C  0.03916923  0.03641711  0.23681994    -0.16600
C180        C  0.96110812  0.99814986  0.23735096    -0.16300
C181        C  0.00004410  0.95804376  0.23894646    -0.16700
C182        C  0.03947876  0.03833524  0.26418619    -0.16700
C183        C  0.96137635  0.99932246  0.26470800    -0.16200
C184        C  0.00104970  0.96009907  0.26630345    -0.16600
C185        C  0.88156249  0.01486821  0.29475130     0.30500
C186        C  0.85798678  0.03590570  0.30002977    -0.35900
C187        C  0.82105267  0.01306708  0.31558552     0.16400
C188        C  0.80774108  0.97210110  0.32508158     0.22300
C189        C  0.83172545  0.95128945  0.32011666    -0.34000
C190        C  0.86906006  0.97437986  0.30484668     0.16300
O191        O  0.91612364  0.02953701  0.27972671    -0.26000
C192        C  0.92634806  0.99837923  0.28065009     0.06100
C193        C  0.89839397  0.96337522  0.29602144    -0.30900
O194        O  0.77134131  0.95630183  0.33848553    -0.22700
C195        C  0.76155252  0.98783513  0.33777611    -0.02700
C196        C  0.79146719  0.02389474  0.32386262    -0.17200
H197        H  0.86748525  0.06766226  0.29227897     0.20800
H198        H  0.82178243  0.91920326  0.32742535     0.19200
H199        H  0.89870543  0.93350623  0.29921223     0.19100
H200        H  0.79108664  0.05359739  0.32005997     0.15000
C201        C  0.19091625  0.17545715  0.32019066     0.30500
C202        C  0.17983409  0.13939495  0.30403184    -0.35900
C203        C  0.13680392  0.11625337  0.29607249     0.16400
C204        C  0.10657467  0.12748635  0.30373056     0.22300
C205        C  0.11777157  0.16382668  0.31966843    -0.34000
C206        C  0.16091947  0.18721991  0.32742783     0.16300
O207        O  0.22944635  0.20204976  0.32951929    -0.26000
C208        C  0.22422142  0.23146068  0.34278604     0.06100
C209        C  0.18222134  0.22390361  0.34210791    -0.30900
O210        O  0.06817437  0.10120916  0.29403496    -0.22700
C211        C  0.07406112  0.07310244  0.27979120    -0.02700
C212        C  0.11608529  0.08092056  0.28023483    -0.17200
H213        H  0.20321612  0.13023384  0.29790450     0.20800
H214        H  0.09453068  0.17337253  0.32545137     0.19200
H215        H  0.16940414  0.24291355  0.35090442     0.19100
H216        H  0.12931581  0.06320467  0.27021182     0.15000
C217        C  0.02018807  0.82934537  0.32949615     0.30500
C218        C  0.04407046  0.87300407  0.32240308    -0.35900
C219        C  0.02212315  0.89000622  0.30783755     0.16400
C220        C  0.97974161  0.86555886  0.30042619     0.22300
C221        C  0.95576140  0.82213468  0.30777423    -0.34000
C222        C  0.97757221  0.80531948  0.32255469     0.16300
O223        O  0.03451963  0.80644796  0.34238386    -0.26000
C224        C  0.00049023  0.76729917  0.34387425     0.06100
C225        C  0.96419768  0.76488936  0.33192739    -0.30900
O226        O  0.96631526  0.88713559  0.28545966    -0.22700
C227        C  0.00031203  0.92614041  0.28362980    -0.02700
C228        C  0.03590423  0.92991833  0.29720704    -0.17200
H229        H  0.07758622  0.89220990  0.32752592     0.20800
H230        H  0.92259129  0.80259091  0.30195590     0.19200
H231        H  0.93273724  0.73704734  0.32987149     0.19100
H232        H  0.06774876  0.95745458  0.29799427     0.15000
C233        C  0.15302967  0.50069249  0.58218545     0.30500
C234        C  0.10861075  0.47474009  0.58351200    -0.35900
C235        C  0.09358318  0.43905758  0.60039898     0.16400
C236        C  0.12016141  0.42886064  0.61495836     0.22300
C237        C  0.16496383  0.45573316  0.61421426    -0.34000
C238        C  0.18016312  0.49202354  0.59736685     0.16300
O239        O  0.17355362  0.53362270  0.56600471    -0.26000
C240        C  0.21459253  0.54722413  0.57111421     0.06100
C241        C  0.22082481  0.52278139  0.59060539    -0.30900
O242        O  0.09876355  0.39105848  0.62707769    -0.22700
C243        C  0.05808752  0.37747578  0.62022465    -0.02700
C244        C  0.05324964  0.40645697  0.60396139    -0.17200
H245        H  0.08721679  0.48099343  0.57134319     0.20800
H246        H  0.18647056  0.44803977  0.62513617     0.19200
H247        H  0.25079413  0.52581296  0.59761818     0.19100
H248        H  0.02434632  0.40268229  0.59455684     0.15000
C249        C  0.27155186  0.41769818  0.40233137     0.30500
C250        C  0.25029597  0.43423020  0.41796729    -0.35900
C251        C  0.27591955  0.47614250  0.42795451     0.16400
C252        C  0.31928070  0.49986367  0.42287407     0.22300
C253        C  0.34011856  0.48387807  0.40687781    -0.34000
C254        C  0.31471857  0.44237287  0.39700986     0.16300
O255        O  0.25556067  0.37781898  0.39331491    -0.26000
C256        C  0.28919630  0.37758445  0.38210952     0.06100
C257        C  0.32645970  0.41699148  0.38369735    -0.30900
O258        O  0.33796416  0.53663228  0.43575477    -0.22700
C259        C  0.30628406  0.53702874  0.44919496    -0.02700
C260        C  0.26677072  0.50040090  0.44498929    -0.17200
H261        H  0.21674613  0.41517647  0.42297923     0.20800
H262        H  0.37426607  0.50184291  0.40335940     0.19200
H263        H  0.35848778  0.42489938  0.37761537     0.19100
H264        H  0.23627764  0.49217166  0.45401340     0.15000
C265        C  0.33094365  0.90487662  0.59263914     0.30500
C266        C  0.35571951  0.89416639  0.57617065    -0.35900
C267        C  0.34513698  0.85098479  0.57615501     0.16400
C268        C  0.31248638  0.82008822  0.59138742     0.22300
C269        C  0.28744836  0.83094106  0.60800939    -0.34000
C270        C  0.29795794  0.87453289  0.60793502     0.16300
O271        O  0.33534488  0.94339655  0.59505178    -0.26000
C272        C  0.30489862  0.93835745  0.61211488     0.06100
C273        C  0.28029854  0.89603034  0.62087388    -0.30900
O274        O  0.30685438  0.78110707  0.58680222    -0.22700
C275        C  0.33623439  0.78757768  0.56835561    -0.02700
C276        C  0.36087749  0.83040823  0.56111435    -0.17200
H277        H  0.38102193  0.91783089  0.56377254     0.20800
H278        H  0.26115039  0.80702765  0.61967221     0.19200
H279        H  0.25357694  0.88313051  0.63459116     0.19100
H280        H  0.38538032  0.84405876  0.54589278     0.15000
C281        C  0.51658624  0.79703184  0.42682079     0.30500
C282        C  0.55629520  0.80781180  0.41486334    -0.35900
C283        C  0.57574551  0.84641876  0.40005351     0.16400
C284        C  0.55689566  0.87195608  0.39733427     0.22300
C285        C  0.51759968  0.86124205  0.40909244    -0.34000
C286        C  0.49858646  0.82327681  0.42388199     0.16300
O287        O  0.49306911  0.76339823  0.44221965    -0.26000
C288        C  0.45997195  0.76872911  0.44916536     0.06100
C289        C  0.46193687  0.80547895  0.43832311    -0.30900
O290        O  0.58118370  0.90791557  0.38465547    -0.22700
C291        C  0.61648028  0.90618687  0.37888126    -0.02700
C292        C  0.61503109  0.86836131  0.38778097    -0.17200
H293        H  0.57138765  0.78815797  0.41748532     0.20800
H294        H  0.50344311  0.88190117  0.40748234     0.19200
H295        H  0.43963709  0.81748009  0.44085596     0.19100
H296        H  0.64014276  0.85981922  0.38705557     0.15000
C297        C  0.13706926  0.71627433  0.40345836     0.30500
C298        C  0.17700698  0.73934900  0.41636735    -0.35900
C299        C  0.19288096  0.71444532  0.42884702     0.16400
C300        C  0.17092514  0.67007310  0.42858816     0.22300
C301        C  0.13171470  0.64723293  0.41540986    -0.34000
C302        C  0.11603387  0.67194102  0.40305676     0.16300
O303        O  0.11419546  0.73227467  0.39224188    -0.26000
C304        C  0.07829718  0.69742588  0.38460561     0.06100
C305        C  0.07817795  0.65930941  0.39072214    -0.30900
O306        O  0.19014220  0.65298031  0.44246604    -0.22700
C307        C  0.22523088  0.68667414  0.45175584    -0.02700
C308        C  0.22882004  0.72586113  0.44383341    -0.17200
H309        H  0.19385334  0.77408130  0.41731892     0.20800
H310        H  0.11397570  0.61246692  0.41545389     0.19200
H311        H  0.05268852  0.62665578  0.38776481     0.19100
H312        H  0.25375540  0.75793577  0.44886113     0.15000
C313        C  0.50749186  0.68330369  0.59375071     0.30500
C314        C  0.54158434  0.70716773  0.61164303    -0.35900
C315        C  0.57501563  0.69692443  0.61194267     0.16400
C316        C  0.57393182  0.66490066  0.59602663     0.22300
C317        C  0.54018257  0.64117106  0.57849235    -0.34000
C318        C  0.50760832  0.65183926  0.57785646     0.16300
O319        O  0.47460824  0.68942272  0.58831937    -0.26000
C320        C  0.45406156  0.66169390  0.56859963     0.06100
C321        C  0.47327295  0.63759914  0.56141013    -0.30900
O322        O  0.60860726  0.66155522  0.59801760    -0.22700
C323        C  0.63313654  0.69183283  0.61530465    -0.02700
C324        C  0.61396406  0.71510737  0.62489059    -0.17200
H325        H  0.54275360  0.73291814  0.62364520     0.20800
H326        H  0.54022241  0.61708001  0.56538497     0.19200
H327        H  0.46422963  0.61422683  0.54550314     0.19100
H328        H  0.62715348  0.74200458  0.63855873     0.15000
C329        C  0.81863055  0.29247022  0.55237690     0.30500
C330        C  0.85358847  0.28547055  0.54936730    -0.35900
C331        C  0.87020174  0.27818585  0.57289019     0.16400
C332        C  0.85361122  0.27773851  0.59780344     0.22300
C333        C  0.81802569  0.28410576  0.60078005    -0.34000
C334        C  0.80141476  0.29158195  0.57714142     0.16300
O335        O  0.79977132  0.30203162  0.53306729    -0.26000
C336        C  0.76988420  0.30733004  0.54542705     0.06100
C337        C  0.76920147  0.30108308  0.57292892    -0.30900
O338        O  0.87755385  0.27561642  0.61723410    -0.22700
C339        C  0.90937954  0.27405494  0.60449833    -0.02700
C340        C  0.90641929  0.27565996  0.57693800    -0.17200
H341        H  0.86794657  0.28730783  0.53006649     0.20800
H342        H  0.80538720  0.28504888  0.62022372     0.19200
H343        H  0.74843784  0.30365936  0.58760517     0.19100
H344        H  0.92982662  0.27875622  0.56218995     0.15000
C345        C  0.70091386  0.12071059  0.38395395     0.30500
C346        C  0.72424973  0.16246717  0.39435972    -0.35900
C347        C  0.70000494  0.17891347  0.40655717     0.16400
C348        C  0.65590893  0.15593106  0.40824121     0.22300
C349        C  0.63263767  0.11457171  0.39759601    -0.34000
C350        C  0.65680227  0.09813524  0.38557191     0.16300
O351        O  0.71700094  0.09723682  0.37420745    -0.26000
C352        C  0.68262963  0.05928626  0.36959587     0.06100
C353        C  0.64440875  0.05822361  0.37610728    -0.30900
O354        O  0.63978310  0.17632986  0.42168157    -0.22700
C355        C  0.67390005  0.21298390  0.42870180    -0.02700
C356        C  0.71230564  0.21648783  0.41980612    -0.17200
H357        H  0.75886831  0.18016326  0.39394114     0.20800
H358        H  0.59819324  0.09586054  0.39947177     0.19200
H359        H  0.61234783  0.03096486  0.37578834     0.19100
H360        H  0.74452048  0.24241692  0.42318454     0.15000
C361        C  0.46919904  0.17480934  0.54907661     0.30500
C362        C  0.42824283  0.13949040  0.54602360    -0.35900
C363        C  0.40315882  0.12559776  0.56908613     0.16400
C364        C  0.41719324  0.14488668  0.59366585     0.22300
C365        C  0.45823397  0.18078404  0.59665449    -0.34000
C366        C  0.48350901  0.19475641  0.57345441     0.16300
O367        O  0.49827733  0.19189148  0.53022218    -0.26000
C368        C  0.53186268  0.22338013  0.54250775     0.06100
C369        C  0.52460537  0.22679836  0.56947428    -0.30900
O370        O  0.39016911  0.12301650  0.61306462    -0.22700
C371        C  0.35843508  0.08972804  0.60053644    -0.02700
C372        C  0.36491781  0.08992099  0.57322856    -0.17200
H373        H  0.41722946  0.12299468  0.52712070     0.20800
H374        H  0.47024467  0.19566915  0.61587874     0.19200
H375        H  0.54640588  0.24942663  0.58395724     0.19100
H376        H  0.34615635  0.06493785  0.55894676     0.15000
C377        C  0.50247638  0.33866144  0.40448434     0.30500
C378        C  0.48140223  0.36112376  0.39672258    -0.35900
C379        C  0.44092747  0.33646921  0.38529313     0.16400
C380        C  0.42213078  0.29261486  0.38151792     0.22300
C381        C  0.44372660  0.27017660  0.38880670    -0.34000
C382        C  0.48430833  0.29489526  0.40047822     0.16300
O383        O  0.53856035  0.35477131  0.41803340    -0.26000
C384        C  0.54378452  0.32098963  0.42278609     0.06100
C385        C  0.51121928  0.28289653  0.41216857    -0.30900
O386        O  0.38195306  0.27556565  0.37327268    -0.22700
C387        C  0.37533824  0.30914954  0.37178392    -0.02700
C388        C  0.41109341  0.34771347  0.37880431    -0.17200
H389        H  0.49464598  0.39512371  0.40065857     0.20800
H390        H  0.42900686  0.23561150  0.38688218     0.19200
H391        H  0.50680439  0.25074501  0.41414182     0.19100
H392        H  0.41372524  0.37915972  0.38072742     0.15000
C393        C  0.88983617  0.55096068  0.38287927     0.30500
C394        C  0.87758684  0.51010523  0.39338217    -0.35900
C395        C  0.83613740  0.48781545  0.40383143     0.16400
C396        C  0.80843287  0.50436668  0.40354757     0.22300
C397        C  0.82032603  0.54481704  0.39240283    -0.34000
C398        C  0.86204647  0.56741230  0.38223814     0.16300
O399        O  0.92889661  0.57949211  0.37585264    -0.26000
C400        C  0.92627256  0.61464735  0.37041753     0.06100
C401        C  0.88527824  0.60898309  0.37370589    -0.30900
O402        O  0.77275263  0.47990239  0.41659228    -0.22700
C403        C  0.77769734  0.44736499  0.42538658    -0.02700
C404        C  0.81643496  0.45038832  0.41792382    -0.17200
H405        H  0.89978011  0.49779045  0.39487595     0.20800
H406        H  0.79943079  0.55873225  0.39307314     0.19200
H407        H  0.87517619  0.63301044  0.37257520     0.19100
H408        H  0.82896169  0.42918232  0.42313316     0.15000
C409        C  0.72501421  0.58091091  0.59037434     0.30500
C410        C  0.71917744  0.53921434  0.59397047    -0.35900
C411        C  0.70380119  0.51175014  0.57171510     0.16400
C412        C  0.69484941  0.52454797  0.54764198     0.22300
C413        C  0.70067023  0.56602896  0.54404646    -0.34000
C414        C  0.71620046  0.59340807  0.56615850     0.16300
O415        O  0.73457931  0.61031920  0.60912921    -0.26000
C416        C  0.73243222  0.64223121  0.59660011     0.06100
C417        C  0.72119502  0.63328272  0.56984693    -0.30900
O418        O  0.68138435  0.49419316  0.52937648    -0.22700
C419        C  0.68159107  0.46125434  0.54176024    -0.02700
C420        C  0.69501749  0.47020609  0.56825434    -0.17200
H421        H  0.72521222  0.52860085  0.61295296     0.20800
H422        H  0.69298557  0.57607573  0.52537691     0.19200
H423        H  0.71313743  0.65155204  0.55595080     0.19100
H424        H  0.69901560  0.44963049  0.58254974     0.15000
C425        C  0.80842043  0.97946752  0.17882808     0.30500
C426        C  0.81990050  0.95644715  0.19673577    -0.35900
C427        C  0.86317005  0.97633965  0.20424303     0.16400
C428        C  0.89330560  0.01594587  0.19452354     0.22300
C429        C  0.88173793  0.03913492  0.17675435    -0.34000
C430        C  0.83829862  0.01944694  0.16948755     0.16300
O431        O  0.76956784  0.96726698  0.16967163    -0.26000
C432        C  0.77438996  0.99995393  0.15439702     0.06100
C433        C  0.81651764  0.03339335  0.15357278    -0.30900
O434        O  0.93191913  0.02856017  0.20435303    -0.22700
C435        C  0.92625169  0.99680572  0.22077246    -0.02700
C436        C  0.88416465  0.96353658  0.22155921    -0.17200
H437        H  0.79658405  0.92539629  0.20454331     0.20800
H438        H  0.90489577  0.07055997  0.16936170     0.19200
H439        H  0.82912240  0.06366546  0.14300309     0.19100
H440        H  0.87102608  0.93440598  0.23337926     0.15000
C441        C  0.97635135  0.86840317  0.19881268     0.30500
C442        C  0.95192625  0.83426124  0.18130530    -0.35900
C443        C  0.96757468  0.80566166  0.17640099     0.16400
C444        C  0.00505730  0.81083082  0.18760347     0.22300
C445        C  0.02913623  0.84457123  0.20532834    -0.34000
C446        C  0.01317706  0.87270454  0.21052162     0.16300
O447        O  0.96738402  0.89846766  0.20661444    -0.26000
C448        C  0.99859820  0.92188032  0.22377385     0.06100
C449        C  0.02797264  0.90735182  0.22697545    -0.30900
O450        O  0.01424972  0.78094984  0.17996673    -0.22700
C451        C  0.98199083  0.75583431  0.16392207    -0.02700
C452        C  0.95178685  0.76946564  0.16105836    -0.17200
H453        H  0.92262729  0.83009529  0.17232248     0.20800
H454        H  0.05816698  0.84845201  0.21456362     0.19200
H455        H  0.05591499  0.92027935  0.23975908     0.19100
H456        H  0.92282915  0.75511955  0.14917356     0.15000
C457        C  0.12469963  0.10015155  0.19381536     0.30500
C458        C  0.15945522  0.10981151  0.17677983    -0.35900
C459        C  0.18505825  0.15332958  0.16984545     0.16400
C460        C  0.17648892  0.18495081  0.17869344     0.22300
C461        C  0.14194892  0.17536143  0.19577730    -0.34000
C462        C  0.11688588  0.13208386  0.20306591     0.16300
O463        O  0.09768427  0.06198357  0.20374601    -0.26000
C464        C  0.07266576  0.06979782  0.21976713     0.06100
C465        C  0.08315184  0.11280951  0.22014217    -0.30900
O466        O  0.20483209  0.22353723  0.17023306    -0.22700
C467        C  0.23235116  0.21686026  0.15597292    -0.02700
C468        C  0.22172312  0.17373352  0.15505624    -0.17200
H469        H  0.16659753  0.08526514  0.16990673     0.20800
H470        H  0.13563141  0.20011340  0.20334758     0.19200
H471        H  0.06852387  0.12771703  0.23176848     0.19100
H472        H  0.23877095  0.15963060  0.14522161     0.15000
C473        C  0.19225454  0.49422545  0.92768013     0.30500
C474        C  0.18126471  0.47457270  0.90246251    -0.35900
C475        C  0.14722806  0.43210427  0.90194139     0.16400
C476        C  0.12534310  0.41075807  0.92466377     0.22300
C477        C  0.13643467  0.43023208  0.94979341    -0.34000
C478        C  0.17036261  0.47245149  0.95028794     0.16300
O479        O  0.22269718  0.53381842  0.93294770    -0.26000
C480        C  0.21991997  0.53724038  0.95924196     0.06100
C481        C  0.18786178  0.50006810  0.97098105    -0.30900
O482        O  0.09160547  0.37343705  0.91937152    -0.22700
C483        C  0.09222689  0.37012091  0.89298639    -0.02700
C484        C  0.12610417  0.40568324  0.88102725    -0.17200
H485        H  0.19743800  0.49152378  0.88444681     0.20800
H486        H  0.11885738  0.41404994  0.96764444     0.19200
H487        H  0.17909495  0.49409923  0.99186125     0.19100
H488        H  0.13154535  0.41298366  0.85993800     0.15000
C489        C  0.33660278  0.49329736  0.09212303     0.30500
C490        C  0.35990179  0.47356558  0.10083961    -0.35900
C491        C  0.33593272  0.43270698  0.11210782     0.16400
C492        C  0.29196385  0.41234259  0.11475820     0.22300
C493        C  0.26860214  0.43244293  0.10634456    -0.34000
C494        C  0.29267141  0.47347100  0.09494914     0.16300
O495        O  0.35244574  0.53029501  0.07945828    -0.26000
C496        C  0.31832251  0.53448685  0.07415646     0.06100
C497        C  0.28020853  0.50020277  0.08339182    -0.30900
O498        O  0.27596441  0.37244306  0.12356478    -0.22700
C499        C  0.31030023  0.36754189  0.12655240    -0.02700
C500        C  0.34835221  0.40412891  0.11990924    -0.17200
H501        H  0.39417384  0.48834633  0.09808561     0.20800
H502        H  0.23405228  0.41658619  0.10761375     0.19200
H503        H  0.24799143  0.49511013  0.08110487     0.19100
H504        H  0.38030862  0.40810572  0.11921588     0.15000
C505        C  0.27912522  0.87872407  0.93788241     0.30500
C506        C  0.29283991  0.86761712  0.96128115    -0.35900
C507        C  0.29521773  0.82968957  0.96032065     0.16400
C508        C  0.28469071  0.80406055  0.93792763     0.22300
C509        C  0.27015292  0.81483478  0.91451033    -0.34000
C510        C  0.26772437  0.85304948  0.91545662     0.16300
O511        O  0.27989936  0.91545927  0.93360711    -0.26000
C512        C  0.26794416  0.91335239  0.90828907     0.06100
C513        C  0.25970776  0.87511223  0.89590853    -0.30900
O514        O  0.29123777  0.77092434  0.94135258    -0.22700
C515        C  0.30615234  0.77570454  0.96625134    -0.02700
C516        C  0.30910045  0.81163262  0.97894551    -0.17200
H517        H  0.30276199  0.88814901  0.97868872     0.20800
H518        H  0.26271922  0.79564193  0.89658166     0.19200
H519        H  0.25343486  0.86694505  0.87498245     0.19100
H520        H  0.32012327  0.82292915  0.99899226     0.15000
C521        C  0.11707899  0.69666459  0.11909092     0.30500
C522        C  0.16050698  0.72006024  0.11181483    -0.35900
C523        C  0.17773806  0.69633546  0.09969049     0.16400
C524        C  0.15385550  0.65266564  0.09519091     0.22300
C525        C  0.11082155  0.62934381  0.10266403    -0.34000
C526        C  0.09369238  0.65296931  0.11461429     0.16300
O527        O  0.09327823  0.71251565  0.12871085    -0.26000
C528        C  0.05432160  0.67834305  0.13035685     0.06100
C529        C  0.05293564  0.64056572  0.12196120    -0.30900
O530        O  0.17523091  0.63721887  0.08217368    -0.22700
C531        C  0.21350000  0.67127078  0.07823373    -0.02700
C532        C  0.21705182  0.70901693  0.08877896    -0.17200
H533        H  0.17910705  0.75450502  0.11454186     0.20800
H534        H  0.09156990  0.59531268  0.09858153     0.19200
H535        H  0.02529912  0.60883744  0.12017264     0.19100
H536        H  0.24403162  0.74124033  0.08763845     0.15000
C537        C  0.57552180  0.86190471  0.11801468     0.30500
C538        C  0.55386402  0.81827445  0.11073560    -0.35900
C539        C  0.51231920  0.80268257  0.10036238     0.16400
C540        C  0.49333628  0.82814311  0.09760447     0.22300
C541        C  0.51449676  0.87122272  0.10537087    -0.34000
C542        C  0.55589524  0.88678374  0.11545467     0.16300
O543        O  0.61635226  0.88485532  0.12492165    -0.26000
C544        C  0.62250605  0.92474705  0.12676167     0.06100
C545        C  0.58585534  0.92751495  0.12129571    -0.30900
O546        O  0.45632987  0.80860886  0.08503511    -0.22700
C547        C  0.45126832  0.76998886  0.07963345    -0.02700
C548        C  0.48493043  0.76429261  0.08886617    -0.17200
H549        H  0.56915846  0.79858628  0.11162610     0.20800
H550        H  0.50059131  0.89187118  0.10231893     0.19200
H551        H  0.58264954  0.95610297  0.11980529     0.19100
H552        H  0.48965864  0.73681455  0.08609612     0.15000
C553        C  0.57737411  0.72938424  0.90982486     0.30500
C554        C  0.53632232  0.72518254  0.90657006    -0.35900
C555        C  0.50919188  0.71053320  0.92905215     0.16400
C556        C  0.52184542  0.70081856  0.95292138     0.22300
C557        C  0.56266929  0.70542155  0.95623022    -0.34000
C558        C  0.58958487  0.72009349  0.93398442     0.16300
O559        O  0.60623749  0.73761609  0.89090242    -0.26000
C560        C  0.63736010  0.73408154  0.90339338     0.06100
C561        C  0.62850918  0.72335028  0.93016721    -0.30900
O562        O  0.49170952  0.68688748  0.97121420    -0.22700
C563        C  0.45890762  0.68757628  0.95921065    -0.02700
C564        C  0.46784126  0.70203084  0.93284209    -0.17200
H565        H  0.52579031  0.73149777  0.88764910     0.20800
H566        H  0.57241100  0.69699394  0.97475351     0.19200
H567        H  0.64628250  0.71476844  0.94410124     0.19100
H568        H  0.44714264  0.70604552  0.91871416     0.15000
C569        C  0.49918742  0.15549587  0.91967668     0.30500
C570        C  0.47091790  0.11137729  0.92078145    -0.35900
C571        C  0.43246294  0.09688865  0.90691298     0.16400
C572        C  0.42187570  0.12360807  0.89276233     0.22300
C573        C  0.45075195  0.16816540  0.89130368    -0.34000
C574        C  0.48979584  0.18286609  0.90521292     0.16300
O575        O  0.53491362  0.17579947  0.93339270    -0.26000
C576        C  0.54955426  0.21690075  0.92744904     0.06100
C577        C  0.52303988  0.22343575  0.90980183    -0.30900
O578        O  0.38264164  0.10255137  0.88255415    -0.22700
C579        C  0.36851387  0.06200231  0.89038662    -0.02700
C580        C  0.39839110  0.05699230  0.90549186    -0.17200
H581        H  0.47781015  0.08991713  0.93250131     0.20800
H582        H  0.44287609  0.18993476  0.88077646     0.19200
H583        H  0.52603045  0.25368625  0.90316379     0.19100
H584        H  0.39507015  0.02804836  0.91476288     0.15000
C585        C  0.44155974  0.30752939  0.10324998     0.30500
C586        C  0.48280932  0.33646250  0.09432357    -0.35900
C587        C  0.50175349  0.31963364  0.07731215     0.16400
C588        C  0.48192958  0.27699132  0.06984351     0.22300
C589        C  0.44053161  0.24774059  0.07907301    -0.34000
C590        C  0.42118206  0.26476541  0.09598979     0.16300
O591        O  0.41656921  0.31801654  0.11661522    -0.26000
C592        C  0.37950370  0.28168695  0.11831019     0.06100
C593        C  0.38041708  0.24711530  0.10603742    -0.30900
O594        O  0.50524264  0.26892610  0.05277042    -0.22700
C595        C  0.54007479  0.30707317  0.04920373    -0.02700
C596        C  0.53951996  0.33967510  0.06398933    -0.17200
H597        H  0.49826087  0.37026828  0.09930843     0.20800
H598        H  0.42398306  0.21454361  0.07269689     0.19200
H599        H  0.35403296  0.21503276  0.10284156     0.19100
H600        H  0.56331945  0.37340018  0.06455777     0.15000
C601        C  0.66754950  0.57768259  0.90696149     0.30500
C602        C  0.64346744  0.54211505  0.92327647    -0.35900
C603        C  0.65633989  0.51101173  0.92401804     0.16400
C604        C  0.69039720  0.51407864  0.90947080     0.22300
C605        C  0.71480463  0.55010480  0.89300226    -0.34000
C606        C  0.70208188  0.58181928  0.89245522     0.16300
O607        O  0.66154876  0.61093829  0.90446156    -0.26000
C608        C  0.69253341  0.63739912  0.88818655     0.06100
C609        C  0.71902453  0.62110876  0.87994996    -0.30900
O610        O  0.69754938  0.48159175  0.91438124    -0.22700
C611        C  0.66776745  0.45801408  0.93240051    -0.02700
C612        C  0.64145112  0.47493858  0.93905936    -0.17200
H613        H  0.61702644  0.53941917  0.93516160     0.20800
H614        H  0.74229302  0.55363591  0.88195298     0.19200
H615        H  0.74690805  0.63622618  0.86718870     0.19100
H616        H  0.61591147  0.46306892  0.95365224     0.15000
C617        C  0.91042439  0.34905583  0.89466553     0.30500
C618        C  0.89935761  0.37251766  0.91217236    -0.35900
C619        C  0.85560714  0.35782312  0.91522399     0.16400
C620        C  0.82457933  0.32294944  0.90149313     0.22300
C621        C  0.83577696  0.29946309  0.88370729    -0.34000
C622        C  0.87986999  0.31370553  0.88104883     0.16300
O623        O  0.94927502  0.35516199  0.89109749    -0.26000
C624        C  0.94420819  0.32338557  0.87506214     0.06100
C625        C  0.90158175  0.29647131  0.86791662    -0.30900
O626        O  0.78544482  0.31348514  0.90880456    -0.22700
C627        C  0.79183383  0.34241341  0.92762704    -0.02700
C628        C  0.83483325  0.37068333  0.93241886    -0.17200
H629        H  0.92325482  0.39921755  0.92364214     0.20800
H630        H  0.81177767  0.27102490  0.87360381     0.19200
H631        H  0.88840026  0.26739556  0.85611207     0.19100
H632        H  0.84872513  0.39604786  0.94715492     0.15000
C633        C  0.79315749  0.50889355  0.07701599     0.30500
C634        C  0.80453705  0.54968789  0.08756058    -0.35900
C635        C  0.84145758  0.56850910  0.10367943     0.16400
C636        C  0.86492082  0.54807782  0.10904770     0.22300
C637        C  0.85321283  0.50729468  0.09894404    -0.34000
C638        C  0.81695247  0.48893016  0.08266294     0.16300
O639        O  0.76208085  0.48678344  0.05981126    -0.26000
C640        C  0.76653064  0.45261449  0.05433022     0.06100
C641        C  0.80004151  0.45223737  0.06806085    -0.30900
O642        O  0.90078653  0.57283515  0.12163337    -0.22700
C643        C  0.90074429  0.60978465  0.12470237    -0.02700
C644        C  0.86431791  0.60905171  0.11418020    -0.17200
H645        H  0.78712220  0.56640133  0.08248612     0.20800
H646        H  0.87251297  0.49200377  0.10232920     0.19200
H647        H  0.81103969  0.42890815  0.06687516     0.19100
H648        H  0.85773611  0.63549609  0.11227351     0.15000
C649        C  0.68132222  0.10881787  0.08749923     0.30500
C650        C  0.65327700  0.11955944  0.07445531    -0.35900
C651        C  0.67184327  0.16035178  0.06290171     0.16400
C652        C  0.71514589  0.18898541  0.06413468     0.22300
C653        C  0.74342833  0.17820853  0.07743425    -0.34000
C654        C  0.72473568  0.13693165  0.08901067     0.16300
O655        O  0.67037973  0.07155190  0.09854036    -0.26000
C656        C  0.70695698  0.07511625  0.10743844     0.06100
C657        C  0.74219529  0.11531226  0.10223177    -0.30900
O658        O  0.72529069  0.22529063  0.05144615    -0.22700
C659        C  0.68789830  0.21947053  0.04206087    -0.02700
C660        C  0.65365119  0.17963329  0.04862367    -0.17200
H661        H  0.61930959  0.09726979  0.07304967     0.20800
H662        H  0.77751424  0.20013622  0.07835106     0.19200
H663        H  0.77554673  0.12636365  0.10670766     0.19100
H664        H  0.62019555  0.16673177  0.04354700     0.15000
C665        C  0.81952216  0.81392554  0.82211253     0.30500
C666        C  0.84918035  0.82253838  0.80150336    -0.35900
C667        C  0.87838674  0.86605573  0.79671286     0.16400
C668        C  0.87882500  0.89901590  0.81130504     0.22300
C669        C  0.84905358  0.89039969  0.83190877    -0.34000
C670        C  0.81938823  0.84683096  0.83646460     0.16300
O671        O  0.78917806  0.77556351  0.82981982    -0.26000
C672        C  0.76879877  0.78392571  0.84911473     0.06100
C673        C  0.78616197  0.82775341  0.85404140    -0.30900
O674        O  0.90821542  0.93739492  0.80282448    -0.22700
C675        C  0.92643805  0.92887071  0.78228725    -0.02700
C676        C  0.90946221  0.88496893  0.77786673    -0.17200
H677        H  0.84912779  0.79708829  0.78976294     0.20800
H678        H  0.84855036  0.91590518  0.84327510     0.19200
H679        H  0.77607374  0.84321017  0.86869217     0.19100
H680        H  0.91810802  0.86929004  0.76253582     0.15000
C681        C  0.99020842  0.12799728  0.78859177     0.30500
C682        C  0.97347209  0.15631838  0.78997978    -0.35900
C683        C  0.99219485  0.18930214  0.80899548     0.16400
C684        C  0.02577022  0.19462021  0.82508059     0.22300
C685        C  0.04233237  0.16613478  0.82380142    -0.34000
C686        C  0.02292801  0.13254536  0.80522880     0.16300
O687        O  0.97772398  0.09519618  0.77213264    -0.26000
C688        C  0.00228824  0.07804031  0.77854732     0.06100
C689        C  0.03084126  0.09975773  0.79913857    -0.30900
O690        O  0.03841423  0.22755830  0.84145593    -0.22700
C691        C  0.01219706  0.24322542  0.83614325    -0.02700
C692        C  0.98271012  0.22066063  0.81610800    -0.17200
H693        H  0.94744198  0.15266912  0.77726040     0.20800
H694        H  0.06824829  0.16967117  0.83659100     0.19200
H695        H  0.05488462  0.09321694  0.80764801     0.19100
H696        H  0.95786945  0.22641951  0.80808731     0.15000
C697        C  0.13296409  0.01032808  0.79413002     0.30500
C698        C  0.17696836  0.02383462  0.79575559    -0.35900
C699        C  0.19053633  0.01102855  0.81868624     0.16400
C700        C  0.16252629  0.98580071  0.83835080     0.22300
C701        C  0.11864034  0.97285512  0.83691164    -0.34000
C702        C  0.10523111  0.98638809  0.81424579     0.16300
O703        O  0.11331928  0.01815885  0.77433203    -0.26000
C704        C  0.07247479  0.99944583  0.78195566     0.06100
C705        C  0.06565741  0.97944561  0.80674269    -0.30900
O706        O  0.18177900  0.97612100  0.85751860    -0.22700
C707        C  0.22283567  0.99608974  0.85035455    -0.02700
C708        C  0.23023896  0.01855400  0.82643148    -0.17200
H709        H  0.19906011  0.04291071  0.78018884     0.20800
H710        H  0.09646488  0.95344512  0.85235145     0.19200
H711        H  0.03571458  0.96146414  0.81733680     0.19100
H712        H  0.26028787  0.03680584  0.81599066     0.15000
C713        C  0.89524590  0.87837613  0.69327145     0.30500
C714        C  0.88653132  0.84733492  0.67346066    -0.35900
C715        C  0.84307968  0.81931590  0.66791831     0.16400
C716        C  0.81035038  0.82196486  0.68068437     0.22300
C717        C  0.81907410  0.85280457  0.70067593    -0.34000
C718        C  0.86254051  0.88053001  0.70643086     0.16300
O719        O  0.93352260  0.90715553  0.70198561    -0.26000
C720        C  0.92529712  0.92768069  0.72126675     0.06100
C721        C  0.88165088  0.91267650  0.72475891    -0.30900
O722        O  0.77206455  0.79290864  0.67203290    -0.22700
C723        C  0.78033668  0.77095805  0.65369568    -0.02700
C724        C  0.82401823  0.78595776  0.65040721    -0.17200
H725        H  0.91186728  0.84495792  0.66323113     0.20800
H726        H  0.79374461  0.85488657  0.71112226     0.19200
H727        H  0.86632301  0.92346120  0.73904258     0.19100
H728        H  0.83946752  0.77429128  0.63681515     0.15000
C729        C  0.98550519  0.16728724  0.66671264     0.30500
C730        C  0.96749804  0.12256612  0.66957216    -0.35900
C731        C  0.98609486  0.10847876  0.68905753     0.16400
C732        C  0.01974090  0.13650258  0.70492011     0.22300
C733        C  0.03838399  0.18126328  0.70165559    -0.34000
C734        C  0.02010625  0.19536055  0.68191577     0.16300
O735        O  0.97178573  0.18732199  0.65061198    -0.26000
C736        C  0.99827006  0.22884942  0.65521682     0.06100
C737        C  0.02923136  0.23580944  0.67438006    -0.30900
O738        O  0.03001153  0.11636694  0.72320384    -0.22700
C739        C  0.00297030  0.07488225  0.71875767    -0.02700
C740        C  0.97522782  0.06804403  0.69757880    -0.17200
H741        H  0.94025252  0.10029767  0.65782074     0.20800
H742        H  0.06464855  0.20353757  0.71406346     0.19200
H743        H  0.05385438  0.26616365  0.68223061     0.19100
H744        H  0.94943351  0.03777486  0.69045288     0.15000
C745        C  0.17554093  0.98444839  0.68006087     0.30500
C746        C  0.13880585  0.95851457  0.69532014    -0.35900
C747        C  0.11526945  0.97818565  0.70417277     0.16400
C748        C  0.12685680  0.02028149  0.69813959     0.22300
C749        C  0.16358326  0.04616069  0.68309177    -0.34000
C750        C  0.18727815  0.02670356  0.67453904     0.16300
O751        O  0.20213772  0.97280669  0.66944922    -0.26000
C752        C  0.23141369  0.00826858  0.65718600     0.06100
C753        C  0.22374596  0.04274125  0.65983511    -0.30900
O754        O  0.10066577  0.03241270  0.70853753    -0.22700
C755        C  0.07205729  0.99781528  0.72161741    -0.02700
C756        C  0.07944291  0.96305400  0.71967587    -0.17200
H757        H  0.12934258  0.92543088  0.70004598     0.20800
H758        H  0.17317410  0.07931642  0.67848848     0.19200
H759        H  0.24195380  0.07479009  0.65160708     0.19100
H760        H  0.06140563  0.93159887  0.72871559     0.15000
loop_ 
_geom_bond_atom_site_label_1 
_geom_bond_atom_site_label_2 
_geom_bond_distance 
_geom_bond_site_symmetry_2 
_ccdc_geom_bond_type 
C1            H2   1.111       .  S
C1            C7   1.544   1_645  S
C1            C6   1.545   1_655  S
C1            C5   1.544   1_545  S
C3            H4   1.111       .  S
C3            C9   1.538   1_665  S
C3            C8   1.538       .  S
C3           C10   1.538   1_655  S
C5            C8   1.378       .  D
C5          C675   1.488       .  S
C6            C9   1.372       .  D
C6          C688   1.483       .  S
C7           C10   1.374       .  D
C7          C704   1.488       .  S
C8          C720   1.485       .  S
C9          C739   1.483       .  S
C10         C755   1.476       .  S
O11          C27   1.276       .  A
O11         Zn17   2.026   1_554  S
C12          O28   1.274       .  A
C12          O25   1.274       .  A
C12         C595   1.473       .  S
O13          C26   1.277       .  A
O13         Cd20   2.097       .  S
O14          C32   1.275       .  A
O14         Cd23   2.061   1_556  S
O15          C29   1.276       .  A
O15         Cd19   2.075       .  S
O16          C27   1.273       .  A
O16         Cd19   2.076       .  S
Zn17         O28   2.038   1_556  S
Zn17         O30   2.008       .  S
Zn17         O22   1.939       .  S
O18          C29   1.272       .  A
O18         Cd23   2.063       .  S
Cd19         O21   2.077   1_554  S
Cd19         O22   1.997   1_554  S
Cd20         O24   2.091       .  S
Cd20         O33   2.098       .  S
Cd20         O22   2.010       .  S
O21          C31   1.277       .  A
O22         Cd23   1.989   1_556  S
Cd23         O25   2.063       .  S
O24          C31   1.277       .  A
C26          O30   1.274       .  A
C26         C576   1.468       .  S
C27         C659   1.473       .  S
C29         C640   1.468       .  S
C31         C627   1.472       .  S
C32          O33   1.277       .  A
C32         C611   1.472       .  S
C34         C672   1.479       .  S
C34          N35   1.368       .  A
C34          N39   1.368       .  A
N35          C36   1.362       .  A
C36         C608   1.473       .  S
C36          N37   1.351       .  A
N37          C38   1.349       .  A
C38         C560   1.471       .  S
C38          N39   1.360       .  A
O40          C56   1.274       .  A
O40         Zn46   2.031       .  S
C41          O57   1.277       .  A
C41          O54   1.272       .  A
C41         C547   1.468       .  S
O42          C55   1.276       .  A
O42         Cd49   2.084       .  S
O43          C61   1.275       .  A
O43         Cd52   2.067   1_556  S
O44          C58   1.273       .  A
O44         Cd48   2.061       .  S
O45          C56   1.273       .  A
O45         Cd48   2.063       .  S
Zn46         O57   2.033       .  S
Zn46         O59   2.016       .  S
Zn46         O51   1.937       .  S
O47          C58   1.275       .  A
O47         Cd52   2.070       .  S
Cd48         O50   2.050   1_554  S
Cd48         O51   1.984       .  S
Cd49         O53   2.091       .  S
Cd49         O62   2.104       .  S
Cd49         O51   2.010   1_556  S
O50          C60   1.274       .  A
O51         Cd52   1.985       .  S
Cd52         O54   2.056       .  S
O53          C60   1.277       .  A
C55          O59   1.276   1_556  A
C55         C515   1.473       .  S
C56         C531   1.470       .  S
C58         C496   1.466       .  S
C60         C480   1.470       .  S
C61          O62   1.279       .  A
C61         C563   1.477       .  S
C63         C467   1.475       .  S
C63          N64   1.364       .  A
C63          N68   1.369       .  A
N64          C65   1.356       .  A
C65         C499   1.469       .  S
C65          N66   1.349       .  A
N66          C67   1.350       .  A
C67         C592   1.470       .  S
C67          N68   1.363       .  A
C69         C707   1.476       .  S
C69          N70   1.369   1_565  A
C69          N74   1.365       .  A
N70          C71   1.363       .  A
C71         C579   1.479       .  S
C71          N72   1.353   1_545  A
N72          C73   1.348       .  A
C73         C512   1.466       .  S
C73          N74   1.358       .  A
C75         C451   1.473       .  S
C75          N76   1.364   1_655  A
C75          N80   1.368       .  A
N76          C77   1.357       .  A
C77         C528   1.472       .  S
C77          N78   1.350   1_455  A
N78          C79   1.350       .  A
C79         C643   1.468       .  S
C79          N80   1.362       .  A
C81         C691   1.476       .  S
C81          N82   1.369   1_455  A
C81          N86   1.364       .  A
N82          C83   1.364       .  A
C83         C624   1.473       .  S
C83          N84   1.351   1_655  A
N84          C85   1.348       .  A
C85         C483   1.460       .  S
C85          N86   1.357       .  A
C87         C432   1.477   1_545  S
C87          N88   1.370       .  A
C87          N92   1.367   1_545  A
N88          C89   1.362       .  A
C89         C656   1.471       .  S
C89          N90   1.348       .  A
N90          C91   1.348   1_545  A
C91         C544   1.471       .  S
C91          N92   1.358       .  A
O93         C109   1.273       .  A
O93         Zn99   2.017       .  S
C94         O110   1.276       .  A
C94         O107   1.272       .  A
C94         C403   1.466       .  S
O95         C108   1.277       .  A
O95        Cd102   2.088       .  S
O96         C114   1.275       .  A
O96        Cd105   2.069       .  S
O97         C111   1.272       .  A
O97        Cd101   2.058       .  S
O98         C109   1.273       .  A
O98        Cd101   2.064       .  S
Zn99        O110   2.028       .  S
Zn99        O112   2.008       .  S
Zn99        O104   1.939       .  S
O100        C111   1.275       .  A
O100       Cd105   2.071       .  S
Cd101       O103   2.059       .  S
Cd101       O104   1.988       .  S
Cd102       O106   2.089       .  S
Cd102       O115   2.095       .  S
Cd102       O104   2.009       .  S
O103        C113   1.274       .  A
O104       Cd105   1.986       .  S
Cd105       O107   2.054       .  S
O106        C113   1.278       .  A
C108        O112   1.274       .  A
C108        C336   1.470       .  S
C109        C355   1.467       .  S
C111        C384   1.466       .  S
C113        C368   1.469       .  S
C114        O115   1.278       .  A
C114        C419   1.475       .  S
C116        C723   1.481       .  S
C116        N117   1.371       .  A
C116        N121   1.369       .  A
N117        C118   1.364       .  A
C118        C323   1.473       .  S
C118        N119   1.349       .  A
N119        C120   1.345       .  A
C120        C416   1.468       .  S
C120        N121   1.359       .  A
O122        C138   1.276       .  A
O122       Zn128   2.033       .  S
C123        O139   1.274       .  A
C123        O136   1.275       .  A
C123        C259   1.468       .  S
O124        C137   1.277       .  A
O124       Cd131   2.093       .  S
O125        C143   1.277       .  A
O125       Cd134   2.072       .  S
O126        C140   1.275       .  A
O126       Cd130   2.068       .  S
O127        C138   1.273       .  A
O127       Cd130   2.074       .  S
Zn128       O139   2.022       .  S
Zn128       O141   2.025       .  S
Zn128       O133   1.943       .  S
O129        C140   1.274       .  A
O129       Cd134   2.082       .  S
Cd130       O132   2.056       .  S
Cd130       O133   1.989       .  S
Cd131       O135   2.097       .  S
Cd131       O144   2.095       .  S
Cd131       O133   2.010       .  S
O132        C142   1.274       .  A
O133       Cd134   1.996       .  S
Cd134       O136   2.070       .  S
O135        C142   1.277       .  A
C137        O141   1.276       .  A
C137        C240   1.471       .  S
C138        C307   1.474       .  S
C140        C288   1.474       .  S
C142        C275   1.470       .  S
C143        O144   1.277       .  A
C143        C320   1.474       .  S
C145        C752   1.478       .  S
C145        N146   1.368   1_545  A
C145        N150   1.366       .  A
N146        C147   1.363       .  A
C147        C272   1.471       .  S
C147        N148   1.350   1_565  A
N148        C149   1.348       .  A
C149        C371   1.465       .  S
C149        N150   1.356       .  A
C151        C736   1.476       .  S
C151        N152   1.363       .  A
C151        N156   1.368   1_655  A
N152        C153   1.357       .  A
C153        C339   1.464       .  S
C153        N154   1.350       .  A
N154        C155   1.355   1_655  A
C155        C243   1.478       .  S
C155        N156   1.363       .  A
C157        C224   1.480       .  S
C157        N158   1.370       .  A
C157        N162   1.365   1_455  A
N158        C159   1.365       .  A
C159        C304   1.478       .  S
C159        N160   1.352       .  A
N160        C161   1.347   1_455  A
C161        C400   1.466       .  S
C161        N162   1.356       .  A
C163        C208   1.475       .  S
C163        N164   1.366       .  A
C163        N168   1.369       .  A
N164        C165   1.358       .  A
C165        C387   1.470       .  S
C165        N166   1.348       .  A
N166        C167   1.349       .  A
C167        C256   1.471       .  S
C167        N168   1.360       .  A
C169        C195   1.476       .  S
C169        N170   1.364   1_565  A
C169        N174   1.370       .  A
N170        C171   1.354       .  A
C171        C352   1.467       .  S
C171        N172   1.347   1_545  A
N172        C173   1.351       .  A
C173        C291   1.472       .  S
C173        N174   1.365       .  A
C175        H176   1.111       .  S
C175        C181   1.540   1_655  S
C175        C180   1.538       .  S
C175        C179   1.538   1_665  S
C177        H178   1.111       .  S
C177        C183   1.538   1_445  S
C177        C182   1.538       .  S
C177        C184   1.536   1_545  S
C179        C182   1.373       .  D
C179        C464   1.480       .  S
C180        C183   1.371       .  D
C180        C435   1.479       .  S
C181        C184   1.372       .  D
C181        C448   1.478   1_455  S
C182        C211   1.477       .  S
C183        C192   1.475       .  S
C184        C227   1.478       .  S
C185        C190   1.381   1_545  A
C185        C186   1.403       .  A
C185        O191   1.320       .  A
C186        C187   1.403       .  A
C186        H197   1.082       .  S
C187        C196   1.359       .  A
C187        C188   1.380   1_545  A
C188        C189   1.406       .  A
C188        O194   1.323       .  A
C189        C190   1.406       .  A
C189        H198   1.082       .  S
C190        C193   1.364       .  A
O191        C192   1.330   1_545  A
C192        C193   1.390       .  A
C193        H199   1.082       .  S
O194        C195   1.332       .  A
C195        C196   1.393   1_565  A
C196        H200   1.083       .  S
C201        C206   1.380       .  A
C201        C202   1.404       .  A
C201        O207   1.320       .  A
C202        C203   1.403       .  A
C202        H213   1.082       .  S
C203        C212   1.363       .  A
C203        C204   1.381       .  A
C204        C205   1.405       .  A
C204        O210   1.321       .  A
C205        C206   1.404       .  A
C205        H214   1.082       .  S
C206        C209   1.364       .  A
O207        C208   1.332       .  A
C208        C209   1.392       .  A
C209        H215   1.082       .  S
O210        C211   1.330       .  A
C211        C212   1.390       .  A
C212        H216   1.082       .  S
C217        C222   1.380   1_455  A
C217        C218   1.407       .  A
C217        O223   1.324       .  A
C218        C219   1.407       .  A
C218        H229   1.082       .  S
C219        C228   1.365       .  A
C219        C220   1.381   1_455  A
C220        C221   1.404       .  A
C220        O226   1.320       .  A
C221        C222   1.404       .  A
C221        H230   1.082       .  S
C222        C225   1.361       .  A
O223        C224   1.333       .  A
C224        C225   1.393   1_455  A
C225        H231   1.083       .  S
O226        C227   1.330   1_655  A
C227        C228   1.390       .  A
C228        H232   1.082       .  S
C233        C238   1.381       .  A
C233        C234   1.397       .  A
C233        O239   1.316       .  A
C234        C235   1.397       .  A
C234        H245   1.083       .  S
C235        C244   1.352       .  A
C235        C236   1.380       .  A
C236        C237   1.411       .  A
C236        O242   1.327       .  A
C237        C238   1.411       .  A
C237        H246   1.082       .  S
C238        C241   1.370       .  A
O239        C240   1.327       .  A
C240        C241   1.396       .  A
C241        H247   1.082       .  S
O242        C243   1.335       .  A
C243        C244   1.390       .  A
C244        H248   1.083       .  S
C249        C254   1.380       .  A
C249        C250   1.409       .  A
C249        O255   1.327       .  A
C250        C251   1.410       .  A
C250        H261   1.082       .  S
C251        C260   1.366       .  A
C251        C252   1.381       .  A
C252        C253   1.395       .  A
C252        O258   1.315       .  A
C253        C254   1.396       .  A
C253        H262   1.082       .  S
C254        C257   1.348       .  A
O255        C256   1.334       .  A
C256        C257   1.389       .  A
C257        H263   1.083       .  S
O258        C259   1.327       .  A
C259        C260   1.395       .  A
C260        H264   1.082       .  S
C265        C270   1.380       .  A
C265        C266   1.397       .  A
C265        O271   1.310       .  A
C266        C267   1.395       .  A
C266        H277   1.082       .  S
C267        C276   1.354       .  A
C267        C268   1.380       .  A
C268        C269   1.411       .  A
C268        O274   1.324       .  A
C269        C270   1.410       .  A
C269        H278   1.082       .  S
C270        C273   1.374       .  A
O271        C272   1.328       .  A
C272        C273   1.395       .  A
C273        H279   1.082       .  S
O274        C275   1.334       .  A
C275        C276   1.387       .  A
C276        H280   1.083       .  S
C281        C286   1.379       .  A
C281        C282   1.413       .  A
C281        O287   1.324       .  A
C282        C283   1.411       .  A
C282        H293   1.082       .  S
C283        C292   1.377       .  A
C283        C284   1.380       .  A
C284        C285   1.396       .  A
C284        O290   1.309       .  A
C285        C286   1.394       .  A
C285        H294   1.082       .  S
C286        C289   1.355       .  A
O287        C288   1.336       .  A
C288        C289   1.387       .  A
C289        H295   1.083       .  S
O290        C291   1.328       .  A
C291        C292   1.397       .  A
C292        H296   1.082       .  S
C297        C302   1.380       .  A
C297        C298   1.410       .  A
C297        O303   1.329       .  A
C298        C299   1.411       .  A
C298        H309   1.082       .  S
C299        C308   1.367       .  A
C299        C300   1.381       .  A
C300        C301   1.397       .  A
C300        O306   1.317       .  A
C301        C302   1.398       .  A
C301        H310   1.082       .  S
C302        C305   1.350       .  A
O303        C304   1.335       .  A
C304        C305   1.391       .  A
C305        H311   1.083       .  S
O306        C307   1.328       .  A
C307        C308   1.396       .  A
C308        H312   1.082       .  S
C313        C318   1.380       .  A
C313        C314   1.415       .  A
C313        O319   1.326       .  A
C314        C315   1.412       .  A
C314        H325   1.083       .  S
C315        C324   1.378       .  A
C315        C316   1.380       .  A
C316        C317   1.395       .  A
C316        O322   1.308       .  A
C317        C318   1.393       .  A
C317        H326   1.083       .  S
C318        C321   1.355       .  A
O319        C320   1.336       .  A
C320        C321   1.387       .  A
C321        H327   1.083       .  S
O322        C323   1.327       .  A
C323        C324   1.397       .  A
C324        H328   1.082       .  S
C329        C334   1.380       .  A
C329        C330   1.399       .  A
C329        O335   1.315       .  A
C330        C331   1.399       .  A
C330        H341   1.083       .  S
C331        C340   1.358       .  A
C331        C332   1.380       .  A
C332        C333   1.408       .  A
C332        O338   1.322       .  A
C333        C334   1.406       .  A
C333        H342   1.083       .  S
C334        C337   1.368       .  A
O335        C336   1.329       .  A
C336        C337   1.394       .  A
C337        H343   1.083       .  S
O338        C339   1.332       .  A
C339        C340   1.388       .  A
C340        H344   1.083       .  S
C345        C350   1.381       .  A
C345        C346   1.405       .  A
C345        O351   1.322       .  A
C346        C347   1.405       .  A
C346        H357   1.082       .  S
C347        C356   1.363       .  A
C347        C348   1.381       .  A
C348        C349   1.398       .  A
C348        O354   1.316       .  A
C349        C350   1.399       .  A
C349        H358   1.082       .  S
C350        C353   1.354       .  A
O351        C352   1.331       .  A
C352        C353   1.390       .  A
C353        H359   1.083       .  S
O354        C355   1.328       .  A
C355        C356   1.393       .  A
C356        H360   1.082       .  S
C361        C366   1.380       .  A
C361        C362   1.398       .  A
C361        O367   1.315       .  A
C362        C363   1.398       .  A
C362        H373   1.083       .  S
C363        C372   1.354       .  A
C363        C364   1.381       .  A
C364        C365   1.408       .  A
C364        O370   1.324       .  A
C365        C366   1.407       .  A
C365        H374   1.083       .  S
C366        C369   1.366       .  A
O367        C368   1.329       .  A
C368        C369   1.393       .  A
C369        H375   1.082       .  S
O370        C371   1.333       .  A
C371        C372   1.388       .  A
C372        H376   1.083       .  S
C377        C382   1.382       .  A
C377        C378   1.397       .  A
C377        O383   1.316       .  A
C378        C379   1.398       .  A
C378        H389   1.083       .  S
C379        C388   1.351       .  A
C379        C380   1.381       .  A
C380        C381   1.405       .  A
C380        O386   1.324       .  A
C381        C382   1.406       .  A
C381        H390   1.083       .  S
C382        C385   1.362       .  A
O383        C384   1.327       .  A
C384        C385   1.393       .  A
C385        H391   1.083       .  S
O386        C387   1.332       .  A
C387        C388   1.390       .  A
C388        H392   1.083       .  S
C393        C398   1.381       .  A
C393        C394   1.402       .  A
C393        O399   1.313       .  A
C394        C395   1.399       .  A
C394        H405   1.082       .  S
C395        C404   1.362       .  A
C395        C396   1.380       .  A
C396        C397   1.404       .  A
C396        O402   1.316       .  A
C397        C398   1.402       .  A
C397        H406   1.082       .  S
C398        C401   1.366       .  A
O399        C400   1.330       .  A
C400        C401   1.391       .  A
C401        H407   1.082       .  S
O402        C403   1.330       .  A
C403        C404   1.390       .  A
C404        H408   1.082       .  S
C409        C414   1.380       .  A
C409        C410   1.408       .  A
C409        O415   1.324       .  A
C410        C411   1.408       .  A
C410        H421   1.082       .  S
C411        C420   1.368       .  A
C411        C412   1.380       .  A
C412        C413   1.401       .  A
C412        O418   1.317       .  A
C413        C414   1.401       .  A
C413        H422   1.083       .  S
C414        C417   1.357       .  A
O415        C416   1.333       .  A
C416        C417   1.391       .  A
C417        H423   1.083       .  S
O418        C419   1.330       .  A
C419        C420   1.394       .  A
C420        H424   1.082       .  S
C425        C430   1.380   1_565  A
C425        C426   1.404       .  A
C425        O431   1.320       .  A
C426        C427   1.403       .  A
C426        H437   1.083       .  S
C427        C436   1.363       .  A
C427        C428   1.381   1_565  A
C428        C429   1.406       .  A
C428        O434   1.321       .  A
C429        C430   1.406       .  A
C429        H438   1.082       .  S
C430        C433   1.366       .  A
O431        C432   1.332       .  A
C432        C433   1.393   1_565  A
C433        H439   1.082       .  S
O434        C435   1.331   1_545  A
C435        C436   1.390       .  A
C436        H440   1.083       .  S
C441        C446   1.380   1_655  A
C441        C442   1.406       .  A
C441        O447   1.321       .  A
C442        C443   1.406       .  A
C442        H453   1.082       .  S
C443        C452   1.366       .  A
C443        C444   1.380   1_655  A
C444        C445   1.403       .  A
C444        O450   1.318       .  A
C445        C446   1.401       .  A
C445        H454   1.082       .  S
C446        C449   1.360       .  A
O447        C448   1.331       .  A
C448        C449   1.390   1_655  A
C449        H455   1.082       .  S
O450        C451   1.331   1_455  A
C451        C452   1.393       .  A
C452        H456   1.082       .  S
C457        C462   1.380       .  A
C457        C458   1.407       .  A
C457        O463   1.322       .  A
C458        C459   1.406       .  A
C458        H469   1.082       .  S
C459        C468   1.368       .  A
C459        C460   1.380       .  A
C460        C461   1.403       .  A
C460        O466   1.318       .  A
C461        C462   1.402       .  A
C461        H470   1.083       .  S
C462        C465   1.362       .  A
O463        C464   1.332       .  A
C464        C465   1.390       .  A
C465        H471   1.083       .  S
O466        C467   1.331       .  A
C467        C468   1.393       .  A
C468        H472   1.082       .  S
C473        C478   1.380       .  A
C473        C474   1.405       .  A
C473        O479   1.322       .  A
C474        C475   1.406       .  A
C474        H485   1.083       .  S
C475        C484   1.365       .  A
C475        C476   1.381       .  A
C476        C477   1.399       .  A
C476        O482   1.315       .  A
C477        C478   1.398       .  A
C477        H486   1.084       .  S
C478        C481   1.355       .  A
O479        C480   1.332       .  A
C480        C481   1.390       .  A
C481        H487   1.083       .  S
O482        C483   1.329       .  A
C483        C484   1.391       .  A
C484        H488   1.083       .  S
C489        C494   1.381       .  A
C489        C490   1.397       .  A
C489        O495   1.316       .  A
C490        C491   1.398       .  A
C490        H501   1.082       .  S
C491        C500   1.353       .  A
C491        C492   1.381       .  A
C492        C493   1.405       .  A
C492        O498   1.323       .  A
C493        C494   1.405       .  A
C493        H502   1.082       .  S
C494        C497   1.362       .  A
O495        C496   1.328       .  A
C496        C497   1.393       .  A
C497        H503   1.082       .  S
O498        C499   1.332       .  A
C499        C500   1.390       .  A
C500        H504   1.083       .  S
C505        C510   1.380       .  A
C505        C506   1.399       .  A
C505        O511   1.314       .  A
C506        C507   1.397       .  A
C506        H517   1.082       .  S
C507        C516   1.357       .  A
C507        C508   1.380       .  A
C508        C509   1.409       .  A
C508        O514   1.323       .  A
C509        C510   1.409       .  A
C509        H518   1.082       .  S
C510        C513   1.370       .  A
O511        C512   1.328       .  A
C512        C513   1.394       .  A
C513        H519   1.082       .  S
O514        C515   1.334       .  A
C515        C516   1.389       .  A
C516        H520   1.082       .  S
C521        C526   1.380       .  A
C521        C522   1.407       .  A
C521        O527   1.324       .  A
C522        C523   1.407       .  A
C522        H533   1.083       .  S
C523        C532   1.366       .  A
C523        C524   1.381       .  A
C524        C525   1.398       .  A
C524        O530   1.316       .  A
C525        C526   1.398       .  A
C525        H534   1.083       .  S
C526        C529   1.353       .  A
O527        C528   1.333       .  A
C528        C529   1.390       .  A
C529        H535   1.083       .  S
O530        C531   1.328       .  A
C531        C532   1.394       .  A
C532        H536   1.083       .  S
C537        C542   1.381       .  A
C537        C538   1.406       .  A
C537        O543   1.325       .  A
C538        C539   1.407       .  A
C538        H549   1.082       .  S
C539        C548   1.363       .  A
C539        C540   1.381       .  A
C540        C541   1.396       .  A
C540        O546   1.317       .  A
C541        C542   1.398       .  A
C541        H550   1.082       .  S
C542        C545   1.351       .  A
O543        C544   1.333       .  A
C544        C545   1.390       .  A
C545        H551   1.083       .  S
O546        C547   1.327       .  A
C547        C548   1.394       .  A
C548        H552   1.082       .  S
C553        C558   1.380       .  A
C553        C554   1.412       .  A
C553        O559   1.327       .  A
C554        C555   1.411       .  A
C554        H565   1.083       .  S
C555        C564   1.372       .  A
C555        C556   1.380       .  A
C556        C557   1.398       .  A
C556        O562   1.315       .  A
C557        C558   1.398       .  A
C557        H566   1.083       .  S
C558        C561   1.355       .  A
O559        C560   1.335       .  A
C560        C561   1.388       .  A
C561        H567   1.083       .  S
O562        C563   1.329       .  A
C563        C564   1.397       .  A
C564        H568   1.082       .  S
C569        C574   1.381       .  A
C569        C570   1.395       .  A
C569        O575   1.314       .  A
C570        C571   1.395       .  A
C570        H581   1.083       .  S
C571        C580   1.350       .  A
C571        C572   1.379       .  A
C572        C573   1.412       .  A
C572        O578   1.329       .  A
C573        C574   1.413       .  A
C573        H582   1.083       .  S
C574        C577   1.371       .  A
O575        C576   1.327       .  A
C576        C577   1.396       .  A
C577        H583   1.082       .  S
O578        C579   1.336       .  A
C579        C580   1.390       .  A
C580        H584   1.083       .  S
C585        C590   1.380       .  A
C585        C586   1.399       .  A
C585        O591   1.312       .  A
C586        C587   1.397       .  A
C586        H597   1.082       .  S
C587        C596   1.357       .  A
C587        C588   1.380       .  A
C588        C589   1.410       .  A
C588        O594   1.323       .  A
C589        C590   1.409       .  A
C589        H598   1.082       .  S
C590        C593   1.373       .  A
O591        C592   1.329       .  A
C592        C593   1.394       .  A
C593        H599   1.082       .  S
O594        C595   1.334       .  A
C595        C596   1.389       .  A
C596        H600   1.083       .  S
C601        C606   1.380       .  A
C601        C602   1.396       .  A
C601        O607   1.310       .  A
C602        C603   1.394       .  A
C602        H613   1.083       .  S
C603        C612   1.354       .  A
C603        C604   1.380       .  A
C604        C605   1.413       .  A
C604        O610   1.326       .  A
C605        C606   1.411       .  A
C605        H614   1.083       .  S
C606        C609   1.375       .  A
O607        C608   1.328       .  A
C608        C609   1.396       .  A
C609        H615   1.082       .  S
O610        C611   1.336       .  A
C611        C612   1.387       .  A
C612        H616   1.083       .  S
C617        C622   1.380       .  A
C617        C618   1.399       .  A
C617        O623   1.311       .  A
C618        C619   1.396       .  A
C618        H629   1.083       .  S
C619        C628   1.358       .  A
C619        C620   1.380       .  A
C620        C621   1.411       .  A
C620        O626   1.323       .  A
C621        C622   1.409       .  A
C621        H630   1.083       .  S
C622        C625   1.374       .  A
O623        C624   1.329       .  A
C624        C625   1.395       .  A
C625        H631   1.082       .  S
O626        C627   1.334       .  A
C627        C628   1.388       .  A
C628        H632   1.083       .  S
C633        C638   1.380       .  A
C633        C634   1.409       .  A
C633        O639   1.321       .  A
C634        C635   1.407       .  A
C634        H645   1.082       .  S
C635        C644   1.372       .  A
C635        C636   1.380       .  A
C636        C637   1.398       .  A
C636        O642   1.310       .  A
C637        C638   1.395       .  A
C637        H646   1.082       .  S
C638        C641   1.358       .  A
O639        C640   1.333       .  A
C640        C641   1.387       .  A
C641        H647   1.082       .  S
O642        C643   1.328       .  A
C643        C644   1.394       .  A
C644        H648   1.082       .  S
C649        C654   1.380       .  A
C649        C650   1.398       .  A
C649        O655   1.309       .  A
C650        C651   1.395       .  A
C650        H661   1.082       .  S
C651        C660   1.357       .  A
C651        C652   1.379       .  A
C652        C653   1.412       .  A
C652        O658   1.323       .  A
C653        C654   1.409       .  A
C653        H662   1.082       .  S
C654        C657   1.375       .  A
O655        C656   1.328       .  A
C656        C657   1.395       .  A
C657        H663   1.082       .  S
O658        C659   1.335       .  A
C659        C660   1.388       .  A
C660        H664   1.082       .  S
C665        C670   1.380       .  A
C665        C666   1.405       .  A
C665        O671   1.322       .  A
C666        C667   1.405       .  A
C666        H677   1.082       .  S
C667        C676   1.361       .  A
C667        C668   1.380       .  A
C668        C669   1.407       .  A
C668        O674   1.324       .  A
C669        C670   1.407       .  A
C669        H678   1.082       .  S
C670        C673   1.366       .  A
O671        C672   1.332       .  A
C672        C673   1.394       .  A
C673        H679   1.082       .  S
O674        C675   1.333       .  A
C675        C676   1.393       .  A
C676        H680   1.082       .  S
C681        C686   1.380   1_655  A
C681        C682   1.406       .  A
C681        O687   1.319       .  A
C682        C683   1.405       .  A
C682        H693   1.082       .  S
C683        C692   1.367       .  A
C683        C684   1.380   1_655  A
C684        C685   1.406       .  A
C684        O690   1.320       .  A
C685        C686   1.405       .  A
C685        H694   1.082       .  S
C686        C689   1.367       .  A
O687        C688   1.332   1_655  A
C688        C689   1.391       .  A
C689        H695   1.082       .  S
O690        C691   1.332       .  A
C691        C692   1.392   1_455  A
C692        H696   1.082       .  S
C697        C702   1.379   1_545  A
C697        C698   1.407       .  A
C697        O703   1.321       .  A
C698        C699   1.406       .  A
C698        H709   1.082       .  S
C699        C708   1.367       .  A
C699        C700   1.380   1_545  A
C700        C701   1.406       .  A
C700        O706   1.321       .  A
C701        C702   1.405       .  A
C701        H710   1.082       .  S
C702        C705   1.366       .  A
O703        C704   1.333   1_545  A
C704        C705   1.392       .  A
C705        H711   1.082       .  S
O706        C707   1.332       .  A
C707        C708   1.392   1_565  A
C708        H712   1.082       .  S
C713        C718   1.380       .  A
C713        C714   1.405       .  A
C713        O719   1.322       .  A
C714        C715   1.406       .  A
C714        H725   1.082       .  S
C715        C724   1.364       .  A
C715        C716   1.380       .  A
C716        C717   1.407       .  A
C716        O722   1.323       .  A
C717        C718   1.406       .  A
C717        H726   1.082       .  S
C718        C721   1.364       .  A
O719        C720   1.331       .  A
C720        C721   1.394       .  A
C721        H727   1.082       .  S
O722        C723   1.333       .  A
C723        C724   1.394       .  A
C724        H728   1.082       .  S
C729        C734   1.380   1_655  A
C729        C730   1.405       .  A
C729        O735   1.319       .  A
C730        C731   1.404       .  A
C730        H741   1.082       .  S
C731        C740   1.365       .  A
C731        C732   1.380   1_655  A
C732        C733   1.407       .  A
C732        O738   1.320       .  A
C733        C734   1.405       .  A
C733        H742   1.082       .  S
C734        C737   1.367       .  A
O735        C736   1.332       .  A
C736        C737   1.393   1_655  A
C737        H743   1.082       .  S
O738        C739   1.333       .  A
C739        C740   1.390   1_455  A
C740        H744   1.082       .  S
C745        C750   1.380   1_565  A
C745        C746   1.408       .  A
C745        O751   1.324       .  A
C746        C747   1.407       .  A
C746        H757   1.082       .  S
C747        C756   1.366       .  A
C747        C748   1.381   1_565  A
C748        C749   1.402       .  A
C748        O754   1.319       .  A
C749        C750   1.402       .  A
C749        H758   1.082       .  S
C750        C753   1.359       .  A
O751        C752   1.334   1_565  A
C752        C753   1.391       .  A
C753        H759   1.083       .  S
O754        C755   1.328   1_545  A
C755        C756   1.392       .  A
C756        H760   1.082       .  S
