geometry optimzed in LAMMPS
_audit_creation_date              2020-11-30 
_audit_creation_method            'lammps2cif' 
_symmetry_space_group_name_H-M    'P1' 
_symmetry_Int_Tables_number       1 
_symmetry_cell_setting            triclinic 
loop_ 
_symmetry_equiv_pos_as_xyz 
  x,y,z 
_cell_length_a                    31.032549218659533 
_cell_length_b                    30.810313890799787 
_cell_length_c                    30.583247018071624 
_cell_angle_alpha                 89.99436605662989 
_cell_angle_beta                  89.68057248574638 
_cell_angle_gamma                 90.46064975864448 
loop_ 
_atom_site_label 
_atom_site_type_symbol 
_atom_site_fract_x 
_atom_site_fract_y 
_atom_site_fract_z 
_atom_site_charge 
C1          C  0.39550530  0.60225565  0.58988088    -0.01680
C2          C  0.62843997  0.36404636  0.59656610    -0.01680
C3          C  0.63587126  0.58376137  0.36839168    -0.01680
C4          C  0.39961527  0.36300346  0.36227053    -0.01680
C5          C  0.51237705  0.47529687  0.48790086    -0.01680
C6          C  0.88989174  0.09150274  0.08948141    -0.01680
C7          C  0.90499413  0.86510331  0.86644138    -0.01680
C8          C  0.12879772  0.86214490  0.09639737    -0.01680
C9          C  0.13614050  0.09121502  0.85862307    -0.01680
C10         C  0.02018936  0.98660831  0.98432126    -0.01680
O11         O  0.98949735  0.10917703  0.28501696    -0.57010
C12         C  0.05693332  0.21499782  0.36062126     0.75620
O13         O  0.93576934  0.21945101  0.28551843    -0.58170
C14         C  0.96052226  0.08578132  0.30247471     0.75590
C15         C  0.93120726  0.21474168  0.40111849     0.77980
Cd16       Cd  0.97884140  0.17466157  0.33233150     1.37460
O17         O  0.05338764  0.17382062  0.36206998    -0.57010
O18         O  0.96553012  0.19386836  0.40827873    -0.55820
C19         C  0.96661053  0.22498478  0.25883576     0.77940
O20         O  0.91491412  0.21128939  0.36332538    -0.58190
O21         O  0.02664168  0.23557315  0.34332474    -0.56640
O22         O  0.94499410  0.10086042  0.33782333    -0.56630
O23         O  0.00034483  0.20284264  0.26371717    -0.55800
O24         O  0.21863179  0.02212833  0.35141166    -0.57010
C25         C  0.12956813  0.92311385  0.30688720     0.75620
O26         O  0.25478703  0.90326151  0.28230036    -0.58170
C27         C  0.25602643  0.02026234  0.36806499     0.75590
C28         C  0.25036681  0.88953735  0.40375185     0.77980
Cd29       Cd  0.21632104  0.94233440  0.33660455     1.37460
O30         O  0.13544462  0.95411559  0.33363067    -0.57010
O31         O  0.21434127  0.90827833  0.40896154    -0.55820
C32         C  0.26359630  0.93676822  0.26005714     0.77940
O33         O  0.26714611  0.89075353  0.36613573    -0.58190
O34         O  0.16252191  0.90062923  0.29834714    -0.56640
O35         O  0.27324622  0.98352694  0.36998045    -0.56630
O36         O  0.24648866  0.97231036  0.27095248    -0.55800
O37         O  0.97994333  0.77283450  0.35105304    -0.57010
C38         C  0.07548091  0.86742951  0.30850612     0.75620
O39         O  0.11302192  0.72806464  0.36747268    -0.58170
C40         C  0.98319502  0.73843774  0.37364350     0.75590
C41         C  0.06311383  0.72678380  0.26333639     0.77980
Cd42       Cd  0.05944375  0.77789019  0.33801378     1.37470
O43         O  0.03937758  0.85712515  0.32534386    -0.57010
O44         O  0.02817989  0.74356492  0.27576819    -0.55820
C45         C  0.11204235  0.74342827  0.40576297     0.77940
O46         O  0.09732202  0.73759955  0.28283346    -0.58190
O47         O  0.10309966  0.83731731  0.30858952    -0.56640
O48         O  0.02058389  0.72485415  0.38073572    -0.56630
O49         O  0.09157139  0.77866971  0.41137814    -0.55800
O50         O  0.81359185  0.93642043  0.35911553    -0.57010
C51         C  0.90037594  0.02936082  0.30078273     0.75620
O52         O  0.77189857  0.05390885  0.27867323    -0.58170
C53         C  0.77281477  0.93172499  0.35756744     0.75590
C54         C  0.77166536  0.05667481  0.39947088     0.77980
Cd55       Cd  0.81184451  0.01081824  0.32897189     1.37460
O56         O  0.88125427  0.99479092  0.28941650    -0.57010
O57         O  0.79418902  0.02310091  0.40583978    -0.55820
C58         C  0.76489813  0.02164104  0.25406249     0.77940
O59         O  0.77252945  0.07279061  0.36134017    -0.58190
O60         O  0.88018117  0.05203105  0.32868292    -0.56640
O61         O  0.75158729  0.96173000  0.34012571    -0.56630
O62         O  0.78468146  0.98676410  0.26131379    -0.55800
C63         C  0.94333023  0.04419234  0.27974400    -0.01680
C64         C  0.08631833  0.91119606  0.28573095    -0.01680
O65         O  0.39425823  0.01546906  0.18247587    -0.57010
C66         C  0.34171280  0.91645868  0.09181298     0.75620
O67         O  0.40285439  0.88443588  0.23001804    -0.58170
C68         C  0.40038129  0.01447093  0.22362030     0.75590
C69         C  0.29575886  0.93521820  0.22618359     0.77980
Cd70       Cd  0.37188347  0.93777368  0.17968490     1.37470
O71         O  0.35850534  0.95360576  0.09868689    -0.57010
O72         O  0.30638400  0.96910545  0.20533372    -0.55820
C73         C  0.44085398  0.88833161  0.21551630     0.77940
O74         O  0.31706728  0.90093788  0.21983716    -0.58190
O75         O  0.34322650  0.89039721  0.12373164    -0.56640
O76         O  0.39257091  0.97923997  0.24299436    -0.56630
O77         O  0.44604050  0.91049971  0.18075113    -0.55800
O78         O  0.37076037  0.20337270  0.01974511    -0.57010
C79         C  0.34527493  0.09119818  0.92663103     0.75620
O80         O  0.32279353  0.21732440  0.89878313    -0.58170
C81         C  0.41055103  0.21257513  0.02137219     0.75590
C82         C  0.43961285  0.22019545  0.88930185     0.77980
Cd83       Cd  0.37556762  0.17935356  0.94296172     1.37460
O84         O  0.36230878  0.09887576  0.96349060    -0.57010
O85         O  0.44195846  0.18023413  0.89920699    -0.55820
C86         C  0.30200897  0.22961198  0.93216427     0.77940
O87         O  0.40596930  0.24000319  0.90081163    -0.58190
O88         O  0.34656256  0.12231884  0.89969049    -0.56640
O89         O  0.43406451  0.19984115  0.99005164    -0.56630
O90         O  0.31454372  0.21696478  0.96922513    -0.55800
O91         O  0.36468871  0.00249252  0.86156321    -0.57010
C92         C  0.40425157  0.94446142  0.73638755     0.75620
O93         O  0.31898146  0.06120491  0.74009843    -0.58170
C94         C  0.34499725  0.03760009  0.86980069     0.75590
C95         C  0.44387226  0.07375868  0.74569640     0.77980
Cd96       Cd  0.37369505  0.02144714  0.77950595     1.37460
O97         O  0.39358824  0.94271057  0.77656388    -0.57010
O98         O  0.44724194  0.05363361  0.78180137    -0.55820
C99         C  0.29597648  0.02779661  0.73360466     0.77940
O100        O  0.40696415  0.07426262  0.72861553    -0.58190
O101        O  0.39976394  0.98036417  0.71746599    -0.56640
O102        O  0.34283825  0.06386131  0.83795715    -0.56630
O103        O  0.30624467  0.99316199  0.75298277    -0.55800
O104        O  0.40225682  0.77785219  0.93513947    -0.57010
C105        C  0.34043996  0.86151478  0.03200538     0.75620
O106        O  0.32732389  0.72660471  0.05292257    -0.58170
C107        C  0.41034531  0.73743404  0.93446333     0.75590
C108        C  0.44213885  0.74125540  0.06389997     0.77980
Cd109      Cd  0.37426238  0.77432743  0.01202637     1.37460
O110        O  0.32474897  0.83897004  0.00129619    -0.57010
O111        O  0.44837172  0.77186021  0.03662542    -0.55820
C112        C  0.30488806  0.71818593  0.01956184     0.77940
O113        O  0.40345295  0.73049135  0.07209077    -0.58190
O114        O  0.37407908  0.84602858  0.04941364    -0.56640
O115        O  0.40092134  0.71598221  0.96808789    -0.56630
O116        O  0.31203761  0.73942018  0.98488234    -0.55800
C117        C  0.31841541  0.90268079  0.04948412    -0.01680
C118        C  0.32206218  0.04911296  0.91350315    -0.01680
O119        O  0.97799979  0.28099978  0.11802631    -0.57010
C120        C  0.05160673  0.37223816  0.21534017     0.75620
O121        O  0.91986671  0.36291173  0.23020212    -0.58170
C122        C  0.95392674  0.30089326  0.09161976     0.75590
C123        C  0.96591281  0.25910866  0.22692720     0.77980
Cd124      Cd  0.97352730  0.33453418  0.17899955     1.37470
O125        O  0.04980632  0.36360498  0.17473309    -0.57010
O126        O  0.00011393  0.26879094  0.20640631    -0.55820
C127        C  0.91874980  0.39993445  0.21233583     0.77940
O128        O  0.93306712  0.28272596  0.22184879    -0.58190
O129        O  0.01855348  0.36336673  0.23757846    -0.56640
O130        O  0.94081599  0.33771668  0.10459999    -0.56630
O131        O  0.93805788  0.40449072  0.17585970    -0.55800
O132        O  0.21583547  0.36146409  0.01144847    -0.57010
C133        C  0.12804219  0.30071884  0.91865650     0.75620
O134        O  0.26599674  0.36295015  0.87858904    -0.58170
C135        C  0.25655052  0.36678126  0.01219482     0.75590
C136        C  0.26717017  0.25996777  0.92946097     0.77980
Cd137      Cd  0.21673885  0.33306471  0.93421840     1.37470
O138        O  0.14978405  0.29019564  0.95180413    -0.57010
O139        O  0.24708945  0.27019450  0.96387560    -0.55820
C140        C  0.25162303  0.40117194  0.88132635     0.77940
O141        O  0.25833201  0.27971915  0.89431283    -0.58190
O142        O  0.14620590  0.32872551  0.89411588    -0.56640
O143        O  0.27688334  0.35716265  0.97799225    -0.56630
O144        O  0.21760316  0.40665760  0.90401226    -0.55800
O145        O  0.96563444  0.35932351  0.77891491    -0.57010
C146        C  0.06545603  0.30116775  0.86667179     0.75620
O147        O  0.08270591  0.28518848  0.73644217    -0.58170
C148        C  0.96696200  0.36805037  0.73821019     0.75590
C149        C  0.09819318  0.40050642  0.74645532     0.77980
Cd150      Cd  0.04293277  0.33499573  0.78007338     1.37460
O151        O  0.04656152  0.27962707  0.83728600    -0.57010
O152        O  0.07536801  0.40677598  0.78045333    -0.55820
C153        C  0.05071163  0.25986900  0.73151988     0.77940
O154        O  0.10057112  0.36207433  0.73210651    -0.58190
O155        O  0.06907165  0.34154994  0.85880486    -0.56640
O156        O  0.00197632  0.36129415  0.71876615    -0.56630
O157        O  0.01632763  0.26769222  0.75242357    -0.55800
O158        O  0.89687341  0.34509600  0.02759124    -0.57010
C159        C  0.77510569  0.36973139  0.93622911     0.75620
O160        O  0.77634892  0.28681126  0.05758713    -0.58170
C161        C  0.90004222  0.30421583  0.03237800     0.75590
C162        C  0.77891168  0.40346692  0.07244036     0.77980
Cd163      Cd  0.81483635  0.33980763  0.01503270     1.37460
O164        O  0.81567703  0.36415128  0.93656137    -0.57010
O165        O  0.81528735  0.40966152  0.05410727    -0.55820
C166        C  0.76710105  0.26469836  0.02387143     0.77940
O167        O  0.76253863  0.36602564  0.06925788    -0.58190
O168        O  0.75492266  0.36089055  0.97077371    -0.56640
O169        O  0.86587151  0.28297573  0.02527082    -0.56630
O170        O  0.78470840  0.27475139  0.98775839    -0.55800
C171        C  0.94093595  0.28070405  0.04796997    -0.01680
C172        C  0.08433362  0.27882222  0.90766518    -0.01680
O173        O  0.64655513  0.50290442  0.16990548    -0.57010
C174        C  0.75580609  0.43898974  0.09378575     0.75620
O175        O  0.76540596  0.57039914  0.09704665    -0.58170
C176        C  0.62619071  0.53486804  0.15446686     0.75590
C177        C  0.75929309  0.52647480  0.20457212     0.77980
Cd178      Cd  0.71474667  0.51590388  0.12700248     1.37460
O179        O  0.71491940  0.44006930  0.09703309    -0.57010
O180        O  0.73884840  0.49177031  0.19660200    -0.55820
C181        C  0.75117363  0.56788094  0.05841873     0.77940
O182        O  0.75339350  0.55885042  0.17986199    -0.58190
O183        O  0.77618206  0.47167338  0.10729062    -0.56640
O184        O  0.64474200  0.55442167  0.12287406    -0.56630
O185        O  0.71705740  0.54552734  0.05268651    -0.55800
O186        O  0.47666399  0.33746112  0.17641610    -0.57010
C187        C  0.55585156  0.24012517  0.09895822     0.75620
O188        O  0.43319796  0.23059908  0.17474587    -0.58170
C189        C  0.45854633  0.36536453  0.15254712     0.75590
C190        C  0.42927512  0.23780974  0.05689631     0.77980
Cd191      Cd  0.47559300  0.27610699  0.12620468     1.37470
O192        O  0.55172281  0.28112149  0.10068563    -0.57010
O193        O  0.46494269  0.25724629  0.05115139    -0.55820
C194        C  0.46535372  0.22429985  0.19928648     0.77940
O195        O  0.41130767  0.24128768  0.09408616    -0.58190
O196        O  0.52460337  0.21737886  0.11224593    -0.56640
O197        O  0.45026216  0.35299631  0.11386315    -0.56630
O198        O  0.49923469  0.24641555  0.19267565    -0.55800
O199        O  0.47533275  0.68356150  0.10502009    -0.57010
C200        C  0.57287568  0.59436435  0.15411041     0.75620
O201        O  0.60646066  0.73599515  0.09532521    -0.58170
C202        C  0.47870207  0.71870213  0.08347594     0.75590
C203        C  0.56040989  0.72998412  0.19548435     0.77980
Cd204      Cd  0.55532025  0.68103002  0.12057236     1.37460
O205        O  0.56584766  0.59957218  0.11345396    -0.57010
O206        O  0.52524905  0.71235616  0.18405495    -0.55820
C207        C  0.61455081  0.71721800  0.05956902     0.77940
O208        O  0.59437652  0.72129113  0.17417314    -0.58190
O209        O  0.57012787  0.62815100  0.17725803    -0.56640
O210        O  0.51614008  0.73335464  0.07773923    -0.56630
O211        O  0.60043162  0.67865941  0.05481428    -0.55800
O212        O  0.31653434  0.51548115  0.09181932    -0.57010
C213        C  0.40341115  0.42299911  0.14821467     0.75620
O214        O  0.27757957  0.39609239  0.17021430    -0.58170
C215        C  0.27571421  0.51583705  0.08849014     0.75590
C216        C  0.27971355  0.38564383  0.04929077     0.77980
Cd217      Cd  0.31637214  0.43837924  0.11622640     1.37470
O218        O  0.39813270  0.42438202  0.10705158    -0.57010
O219        O  0.31554260  0.40511795  0.04375496    -0.55820
C220        C  0.27156083  0.42922104  0.19416476     0.77940
O221        O  0.26445056  0.38481572  0.08765612    -0.58190
O222        O  0.37032165  0.43186155  0.17042087    -0.56640
O223        O  0.25561267  0.48204152  0.09935312    -0.56630
O224        O  0.29087673  0.46425326  0.18429398    -0.55800
C225        C  0.44559598  0.40949845  0.17121642    -0.01680
C226        C  0.58359761  0.55048064  0.17487234    -0.01680
O227        O  0.48290472  0.10027536  0.68247671    -0.57010
C228        C  0.57711700  0.15530703  0.59283205     0.75620
O229        O  0.60094312  0.17316966  0.72670573    -0.58170
C230        C  0.48162264  0.09299414  0.72344329     0.75590
C231        C  0.61091431  0.05311301  0.71817533     0.77980
Cd232      Cd  0.56148872  0.12150855  0.68227115     1.37460
O233        O  0.57205273  0.11456845  0.59827994    -0.57010
O234        O  0.57881721  0.04639627  0.69362983    -0.55820
C235        C  0.56801348  0.19690252  0.73150457     0.77940
O236        O  0.62555989  0.09158672  0.72002849    -0.58190
O237        O  0.57641134  0.17689157  0.62780693    -0.56640
O238        O  0.51568876  0.10058652  0.74429883    -0.56630
O239        O  0.53409127  0.18691101  0.71089717    -0.55800
O240        O  0.55184497  0.09291894  0.27943083    -0.57010
C241        C  0.45925595  0.15054410  0.36879403     0.75620
O242        O  0.43346402  0.16514766  0.23705085    -0.58170
C243        C  0.55046510  0.08316823  0.23908649     0.75590
C244        C  0.41926580  0.05073727  0.24770343     0.77980
Cd245      Cd  0.47478504  0.11548874  0.28101277     1.37460
O246        O  0.47471144  0.17106627  0.33663921    -0.57010
O247        O  0.44075673  0.04423606  0.28232432    -0.55820
C248        C  0.46569198  0.19003695  0.23126911     0.77940
O249        O  0.41751466  0.08918923  0.23345050    -0.58190
O250        O  0.45541639  0.10987015  0.36262886    -0.56640
O251        O  0.51523544  0.08818726  0.22000441    -0.56630
O252        O  0.50010810  0.18186806  0.25155885    -0.55800
O253        O  0.63401161  0.13334916  0.49759513    -0.57010
C254        C  0.74628571  0.07578493  0.43516718     0.75620
O255        O  0.76057265  0.16728209  0.55115320    -0.58170
C256        C  0.62793585  0.15156624  0.53433579     0.75590
C257        C  0.75483920  0.05270967  0.56854343     0.77980
Cd258      Cd  0.71476669  0.11521478  0.51359900     1.37470
O259        O  0.73452493  0.11508360  0.43482751    -0.57010
O260        O  0.71671160  0.04706357  0.55445695    -0.55820
C261        C  0.77340079  0.18492634  0.51602403     0.77940
O262        O  0.77241101  0.08910414  0.56132318    -0.58190
O263        O  0.73611550  0.05357050  0.46853766    -0.56640
O264        O  0.65911795  0.14813818  0.56067020    -0.56630
O265        O  0.75789061  0.17117830  0.48045429    -0.55800
O266        O  0.38082780  0.12492522  0.39995698    -0.57010
C267        C  0.27364749  0.08967030  0.51655248     0.75620
O268        O  0.27285277  0.17800871  0.39659558    -0.58170
C269        C  0.39928755  0.15364632  0.42314367     0.75590
C270        C  0.27808031  0.05764953  0.38717652     0.77980
Cd271      Cd  0.31143572  0.12563547  0.43912554     1.37470
O272        O  0.31374943  0.09821281  0.51564628    -0.57010
O273        O  0.31104191  0.05242194  0.41104468    -0.55820
C274        C  0.26498269  0.20111450  0.42986228     0.77940
O275        O  0.26413664  0.09588479  0.38265180    -0.58190
O276        O  0.25238787  0.09852160  0.48291250    -0.56640
O277        O  0.37799135  0.16628240  0.45602904    -0.56630
O278        O  0.28369047  0.19221546  0.46525381    -0.55800
C279        C  0.44248060  0.17459805  0.41023540    -0.01680
C280        C  0.58738765  0.17731426  0.54818206    -0.01680
O281        O  0.89425040  0.43885214  0.27551115    -0.57010
C282        C  0.85043762  0.53854888  0.36336861     0.75620
O283        O  0.90729237  0.56710329  0.22207119    -0.58170
C284        C  0.89942658  0.43718941  0.23428021     0.75590
C285        C  0.79387923  0.52630946  0.23572113     0.77980
Cd286      Cd  0.87403541  0.51681377  0.27476289     1.37460
O287        O  0.86622163  0.50139117  0.35568241    -0.57010
O288        O  0.80332549  0.49176556  0.25572654    -0.55820
C289        C  0.94467959  0.56423655  0.23777550     0.77940
O290        O  0.81948516  0.55827969  0.23851591    -0.58190
O291        O  0.85087836  0.56489804  0.33164648    -0.56640
O292        O  0.89058666  0.47083588  0.21283850    -0.56630
O293        O  0.94857551  0.54309562  0.27316907    -0.55800
O294        O  0.88576244  0.51596170  0.67757192    -0.57010
C295        C  0.83786929  0.41978816  0.58619833     0.75620
O296        O  0.89307414  0.38610911  0.72917540    -0.58170
C297        C  0.89189274  0.51594689  0.71867039     0.75590
C298        C  0.78673286  0.43345646  0.72080913     0.77980
Cd299      Cd  0.86403502  0.43782855  0.67599831     1.37470
O300        O  0.85936535  0.45415463  0.59421470    -0.57010
O301        O  0.79775008  0.46775445  0.70081051    -0.55820
C302        C  0.93103232  0.38725554  0.71429813     0.77940
O303        O  0.80764937  0.39913514  0.71344256    -0.58190
O304        O  0.83266450  0.39427853  0.61835352    -0.56640
O305        O  0.88413449  0.48109815  0.73873496    -0.56630
O306        O  0.93699924  0.40722036  0.67835765    -0.55800
O307        O  0.86015944  0.35896681  0.49492416    -0.57010
C308        C  0.91185219  0.24166166  0.43548749     0.75620
O309        O  0.89928316  0.22271178  0.56192588    -0.58170
C310        C  0.83913935  0.36582915  0.53000543     0.75590
C311        C  0.80426268  0.21997974  0.51600732     0.77980
Cd312      Cd  0.87273155  0.27823060  0.51191975     1.37470
O313        O  0.87297985  0.25387481  0.43434406    -0.57010
O314        O  0.81446608  0.23875190  0.48064386    -0.55820
C315        C  0.93499532  0.24144153  0.56843062     0.77940
O316        O  0.82298716  0.23173984  0.55071785    -0.58190
O317        O  0.93368164  0.25329794  0.46832261    -0.56640
O318        O  0.83626629  0.33357617  0.55549997    -0.56630
O319        O  0.93987550  0.27952269  0.55306874    -0.55800
O320        O  0.90313127  0.68079765  0.52018515    -0.57010
C321        C  0.85044241  0.59354209  0.42265014     0.75620
O322        O  0.82964807  0.72722117  0.40292188    -0.58170
C323        C  0.90972584  0.72157139  0.52087046     0.75590
C324        C  0.94632630  0.71571811  0.39289456     0.77980
Cd325      Cd  0.87779655  0.68192312  0.44323332     1.37470
O326        O  0.83610807  0.61419591  0.45521289    -0.57010
O327        O  0.95201382  0.68555659  0.42058095    -0.55820
C328        C  0.80262929  0.72923348  0.43394802     0.77940
O329        O  0.90789897  0.72606111  0.38407325    -0.58190
O330        O  0.88178606  0.61161706  0.40275311    -0.56640
O331        O  0.90052032  0.74253880  0.48702723    -0.56630
O332        O  0.80879974  0.70616988  0.46744018    -0.55800
C333        C  0.82847590  0.55181063  0.40618099    -0.01680
C334        C  0.81671622  0.40874264  0.54201686    -0.01680
O335        O  0.03387435  0.09950487  0.63666006    -0.57010
C336        C  0.97048306  0.21918420  0.58975042     0.75620
O337        O  0.08487237  0.22117986  0.67539080    -0.58170
C338        C  0.07225910  0.09346339  0.64957375     0.75590
C339        C  0.09696023  0.21630093  0.55263894     0.77980
Cd340      Cd  0.04706233  0.18011359  0.62185892     1.37460
O341        O  0.97188097  0.17809551  0.59388684    -0.57010
O342        O  0.07827858  0.17971783  0.54827955    -0.55820
C343        C  0.05178831  0.22614372  0.69906794     0.77940
O344        O  0.09614498  0.23351730  0.59001317    -0.58190
O345        O  0.00284197  0.24059543  0.60215018    -0.56640
O346        O  0.09677573  0.12593311  0.64546526    -0.56630
O347        O  0.01834429  0.20402832  0.69045204    -0.55800
O348        O  0.14906539  0.00178559  0.65745596    -0.57010
C349        C  0.25711402  0.93903693  0.58961046     0.75620
O350        O  0.26718847  0.07142089  0.59183708    -0.58170
C351        C  0.12928143  0.03537408  0.64544000     0.75590
C352        C  0.26299780  0.02721379  0.70035766     0.77980
Cd353      Cd  0.21803195  0.01677806  0.62161601     1.37460
O354        O  0.21678905  0.93941044  0.59693207    -0.57010
O355        O  0.24293572  0.99247799  0.69171321    -0.55820
C356        C  0.25250905  0.06835855  0.55343879     0.77940
O357        O  0.25736452  0.05939868  0.67542678    -0.58190
O358        O  0.27772967  0.97337219  0.59744571    -0.56640
O359        O  0.14811648  0.05750798  0.61595584    -0.56630
O360        O  0.21921471  0.04480675  0.54773780    -0.55800
O361        O  0.05744963  0.77619734  0.59794255    -0.57010
C362        C  0.96284904  0.86651502  0.65391184     0.75620
O363        O  0.92713310  0.72857004  0.59594233    -0.58170
C364        C  0.05682262  0.73539772  0.59132527     0.75590
C365        C  0.96816983  0.73004703  0.70023293     0.77980
Cd366      Cd  0.98101428  0.77787817  0.62510393     1.37470
O367        O  0.99672717  0.84677278  0.66492682    -0.57010
O368        O  0.00411793  0.74792051  0.69212274    -0.55820
C369        C  0.92971430  0.74374684  0.55760727     0.77940
O370        O  0.93612370  0.74019001  0.67710894    -0.58190
O371        O  0.94033866  0.84731283  0.62518336    -0.56640
O372        O  0.02239048  0.71566016  0.60052911    -0.56630
O373        O  0.95201293  0.77811607  0.55179743    -0.55800
O374        O  0.87396611  0.93487414  0.67880879    -0.57010
C375        C  0.77817557  0.01736437  0.58947705     0.75620
O376        O  0.77168555  0.88041933  0.59285158    -0.58170
C377        C  0.90599135  0.92441024  0.65561123     0.75590
C378        C  0.76869160  0.93200208  0.69537123     0.77980
Cd379      Cd  0.81858503  0.93995179  0.62109703     1.37470
O380        O  0.81896389  0.01688034  0.59352293    -0.57010
O381        O  0.78690423  0.96749642  0.68498131    -0.55820
C382        C  0.78243784  0.88668980  0.55338394     0.77940
O383        O  0.77787720  0.89805533  0.67380808    -0.58190
O384        O  0.75791459  0.98411605  0.60182255    -0.56640
O385        O  0.89936023  0.92507588  0.61462397    -0.56630
O386        O  0.81450380  0.91166409  0.54656540    -0.55800
C387        C  0.08850645  0.05054523  0.66946051    -0.01680
C388        C  0.94850752  0.90891742  0.67636507    -0.01680
O389        O  0.57232425  0.84026031  0.36013298    -0.57010
C390        C  0.47764966  0.86962086  0.23856577     0.75620
O391        O  0.60949913  0.86402890  0.22802099    -0.58170
C392        C  0.57510648  0.79924602  0.36433930     0.75590
C393        C  0.56049194  0.76273179  0.22874294     0.77980
Cd394      Cd  0.55476061  0.83634632  0.27864221     1.37470
O395        O  0.47630627  0.85746881  0.27836057    -0.57010
O396        O  0.52557417  0.77278000  0.24767518    -0.55820
C397        C  0.60951726  0.90173486  0.24428281     0.77940
O398        O  0.59418936  0.78491588  0.23659093    -0.58190
O399        O  0.51334174  0.86666827  0.21936055    -0.56640
O400        O  0.56581587  0.77768725  0.33055787    -0.56630
O401        O  0.59023639  0.90687875  0.28065162    -0.55800
O402        O  0.55699825  0.86492583  0.67588229    -0.57010
C403        C  0.45881417  0.81145955  0.58954795     0.75620
O404        O  0.44138234  0.78942008  0.72044248    -0.58170
C405        C  0.55785466  0.87116060  0.71698364     0.75590
C406        C  0.42417007  0.90825128  0.71302792     0.77980
Cd407      Cd  0.47884476  0.84289662  0.67739678     1.37470
O408        O  0.46140518  0.78880375  0.62379347    -0.57010
O409        O  0.44629614  0.91479853  0.67861850    -0.55820
C410        C  0.47501021  0.76674086  0.72524384     0.77940
O411        O  0.42237123  0.86980943  0.72732720    -0.58190
O412        O  0.46791838  0.85145478  0.59441482    -0.56640
O413        O  0.52339710  0.86444097  0.73769033    -0.56630
O414        O  0.50850605  0.77694017  0.70361155    -0.55800
O415        O  0.72200618  0.84879332  0.52018020    -0.57010
C416        C  0.63158831  0.79796336  0.41887539     0.75620
O417        O  0.76874372  0.85935953  0.38378613    -0.58170
C418        C  0.75833031  0.86791564  0.51652662     0.75590
C419        C  0.76846447  0.76034520  0.43319705     0.77980
Cd420      Cd  0.71766310  0.83290709  0.43852355     1.37470
O421        O  0.66589118  0.77619507  0.41960922    -0.57010
O422        O  0.74757034  0.76871223  0.46782882    -0.55820
C423        C  0.75059313  0.89552667  0.37887931     0.77940
O424        O  0.76152787  0.78287075  0.39934093    -0.58190
O425        O  0.63596084  0.83790493  0.42879192    -0.56640
O426        O  0.77282150  0.87226833  0.47837327    -0.56630
O427        O  0.71371777  0.90032310  0.39643841    -0.55800
O428        O  0.38725740  0.84509795  0.55018336    -0.57010
C429        C  0.27282087  0.86963391  0.44026209     0.75620
O430        O  0.27762251  0.78045585  0.55985699    -0.58170
C431        C  0.40322544  0.81213314  0.53140660     0.75590
C432        C  0.27919867  0.90228160  0.56989487     0.77980
Cd433      Cd  0.31373234  0.83620984  0.51668806     1.37470
O434        O  0.31323841  0.86324236  0.44003424    -0.57010
O435        O  0.31350870  0.90819178  0.54778078    -0.55820
C436        C  0.26975468  0.75770226  0.52626032     0.77940
O437        O  0.26417162  0.86402481  0.57222789    -0.58190
O438        O  0.25263214  0.86011860  0.47466733    -0.56640
O439        O  0.37934968  0.79450234  0.50298423    -0.56630
O440        O  0.28699224  0.76884600  0.49043766    -0.55800
C441        C  0.58822686  0.77647885  0.40702035    -0.01680
C442        C  0.44522237  0.79056107  0.54592997    -0.01680
O443        O  0.63427716  0.93863299  0.17956772    -0.57010
C444        C  0.68016589  0.03909998  0.08861304     0.75620
O445        O  0.62465762  0.06831041  0.22960974    -0.58170
C446        C  0.62769386  0.93883085  0.22069679     0.75590
C447        C  0.73132500  0.02246602  0.22217577     0.77980
Cd448      Cd  0.65475069  0.01694315  0.17790579     1.37470
O449        O  0.66472600  0.00166983  0.09689695    -0.57010
O450        O  0.72004307  0.98779146  0.20326662    -0.55820
C451        C  0.58674923  0.06487020  0.21531633     0.77940
O452        O  0.70960351  0.05639202  0.21574664    -0.58190
O453        O  0.68069057  0.06507930  0.12073101    -0.56640
O454        O  0.63433787  0.97398020  0.24056315    -0.56630
O455        O  0.58121211  0.04355350  0.18017880    -0.55800
O456        O  0.64951676  0.19613987  0.94037758    -0.57010
C457        C  0.68178413  0.09715863  0.03582991     0.75620
O458        O  0.71258384  0.22438952  0.05968237    -0.58170
C459        C  0.62008033  0.22422111  0.94444378     0.75590
C460        C  0.59282019  0.21934005  0.07845279     0.77980
Cd461      Cd  0.65638843  0.18575505  0.02119443     1.37460
O462        O  0.65704942  0.10555794  0.00403453    -0.57010
O463        O  0.58986367  0.18096145  0.06344363    -0.55820
C464        C  0.73315099  0.23276165  0.02486609     0.77940
O465        O  0.62758466  0.23989424  0.07148337    -0.58190
O466        O  0.69062188  0.12861477  0.06088653    -0.56640
O467        O  0.60613234  0.23107707  0.98250119    -0.56630
O468        O  0.71990093  0.21617467  0.98962789    -0.55800
O469        O  0.66642024  0.01731554  0.75905323    -0.57010
C470        C  0.69141741  0.92129025  0.86905775     0.75620
O471        O  0.63163969  0.89277403  0.72169569    -0.58170
C472        C  0.62844840  0.01741222  0.74400695     0.75590
C473        C  0.73498536  0.93212390  0.72784312     0.77980
Cd474      Cd  0.66148275  0.93875014  0.78011356     1.37470
O475        O  0.66923997  0.95505446  0.86184089    -0.57010
O476        O  0.72247101  0.96781832  0.74347378    -0.55820
C477        C  0.59535282  0.88830920  0.74016802     0.77940
O478        O  0.71465670  0.89795262  0.73862236    -0.58190
O479        O  0.69460194  0.89538513  0.83712303    -0.56640
O480        O  0.60523591  0.98451201  0.75206261    -0.56630
O481        O  0.59185393  0.90196162  0.77922308    -0.55800
O482        O  0.68296429  0.85916918  0.96326142    -0.57010
C483        C  0.63578402  0.74023477  0.02364657     0.75620
O484        O  0.63598682  0.72684646  0.89442727    -0.58170
C485        C  0.69916769  0.86764203  0.92595981     0.75590
C486        C  0.74118291  0.73503690  0.94064005     0.77980
Cd487      Cd  0.66670108  0.78044802  0.94533171     1.37470
O488        O  0.63433403  0.78132797  0.01965800    -0.57010
O489        O  0.73153896  0.75457599  0.97569590    -0.55820
C490        C  0.59924675  0.74378155  0.89229855     0.77940
O491        O  0.71967178  0.74248574  0.90648347    -0.58190
O492        O  0.65346455  0.71930963  0.99321179    -0.56640
O493        O  0.69987112  0.83605775  0.89947718    -0.56630
O494        O  0.59463315  0.78034516  0.91095917    -0.55800
C495        C  0.70125596  0.05287233  0.04487597    -0.01680
C496        C  0.71638137  0.91253594  0.91155021    -0.01680
O497        O  0.07238936  0.61434504  0.09737333    -0.57010
C498        C  0.98215609  0.58347558  0.21576604     0.75620
O499        O  0.11296622  0.59384500  0.22930318    -0.58170
C500        C  0.07451240  0.65504703  0.09035898     0.75590
C501        C  0.06317664  0.69375992  0.23015796     0.77980
Cd502      Cd  0.05928948  0.62083657  0.17842294     1.37470
O503        O  0.98093636  0.59964713  0.17758445    -0.57010
O504        O  0.02814896  0.68185462  0.21267371    -0.55820
C505        C  0.11640830  0.55753395  0.21050999     0.77940
O506        O  0.09751234  0.67399045  0.22003018    -0.58190
O507        O  0.01809346  0.58354147  0.23437211    -0.56640
O508        O  0.07040809  0.67848359  0.12397455    -0.56630
O509        O  0.09915106  0.55331459  0.17320227    -0.55800
O510        O  0.23513032  0.61655838  0.93770111    -0.57010
C511        C  0.12678078  0.64876897  0.03382490     0.75620
O512        O  0.26900747  0.58897707  0.06597518    -0.58170
C513        C  0.25036142  0.57849953  0.93831429     0.75590
C514        C  0.27354407  0.68377449  0.01971490     0.77980
Cd515      Cd  0.21453532  0.61480236  0.01583009     1.37470
O516        O  0.13455966  0.63069827  0.99731665    -0.57010
O517        O  0.25867312  0.66992906  0.98393518    -0.55820
C518        C  0.25225043  0.55167971  0.06946247     0.77940
O519        O  0.25974542  0.66670397  0.05478633    -0.58190
O520        O  0.15692066  0.64608228  0.06151271    -0.56640
O521        O  0.24161245  0.55535044  0.97140769    -0.56630
O522        O  0.21515954  0.54561587  0.05296040    -0.55800
O523        O  0.96693030  0.61245751  0.85908314    -0.57010
C524        C  0.04387004  0.58476535  0.73507235     0.75620
O525        O  0.91281964  0.59010269  0.72484174    -0.58170
C526        C  0.95342000  0.65104733  0.86410707     0.75590
C527        C  0.96556572  0.69506757  0.73119605     0.77980
Cd528      Cd  0.96678412  0.61752874  0.77603963     1.37470
O529        O  0.04466227  0.59712088  0.77472718    -0.57010
O530        O  0.99948124  0.68183477  0.74957758    -0.56150
C531        C  0.91077937  0.55283465  0.74191555     0.77940
O532        O  0.93077532  0.67392169  0.73699385    -0.58190
O533        O  0.00846852  0.58772973  0.71560200    -0.56640
O534        O  0.94335050  0.67045461  0.82932569    -0.56630
O535        O  0.92876289  0.54787778  0.77875769    -0.55800
O536        O  0.81381997  0.59749228  0.02168431    -0.57010
C537        C  0.90158815  0.65251769  0.92210980     0.75620
O538        O  0.76255032  0.59498514  0.89193627    -0.58170
C539        C  0.77376054  0.58827363  0.02135753     0.75590
C540        C  0.77198606  0.70092207  0.94073721     0.77980
Cd541      Cd  0.81439945  0.62345719  0.94385681     1.37470
O542        O  0.89184584  0.63904257  0.96012862    -0.57010
O543        O  0.78877337  0.68848774  0.97606612    -0.55820
C544        C  0.77919200  0.55781600  0.88982603     0.77940
O545        O  0.77905528  0.67951780  0.90627817    -0.58190
O546        O  0.87118215  0.65064966  0.89467693    -0.56640
O547        O  0.75390306  0.59556340  0.98637513    -0.56630
O548        O  0.81516834  0.55238825  0.90874497    -0.55800
C549        C  0.08566867  0.67438126  0.04520619    -0.01680
C550        C  0.94563903  0.67233114  0.90889141    -0.01680
O551        O  0.49590822  0.61546267  0.78689025    -0.57010
C552        C  0.56320964  0.72153198  0.87064710     0.75620
O553        O  0.44595000  0.72748417  0.78451877    -0.58170
C554        C  0.46438675  0.59393778  0.80232819     0.75590
C555        C  0.43216767  0.71600567  0.89822465     0.77980
Cd556      Cd  0.48688695  0.68235553  0.83272465     1.37470
O557        O  0.56265913  0.68105639  0.86240218    -0.57010
O558        O  0.45400799  0.68185554  0.90462218    -0.55820
C559        C  0.47680015  0.73314123  0.75797962     0.77940
O560        O  0.43154693  0.73134112  0.85989997    -0.58190
O561        O  0.53001419  0.74225279  0.86083123    -0.56640
O562        O  0.44679778  0.61062891  0.83583756    -0.56630
O563        O  0.51076907  0.71145215  0.76362505    -0.55800
O564        O  0.53892803  0.34955870  0.79429410    -0.57010
C565        C  0.47565359  0.24290244  0.86827621     0.75620
O566        O  0.59841472  0.23983478  0.78783625    -0.58170
C567        C  0.57077268  0.37112715  0.80854474     0.75590
C568        C  0.60144035  0.24738986  0.90748834     0.77980
Cd569      Cd  0.55380024  0.28224271  0.83701759     1.37460
O570        O  0.47986023  0.28398075  0.86898180    -0.57010
O571        O  0.57145821  0.27454335  0.91353773    -0.55820
C572        C  0.56683729  0.23166615  0.76304740     0.77940
O573        O  0.61343325  0.24064084  0.86845649    -0.58190
O574        O  0.50569119  0.22164786  0.85097349    -0.56640
O575        O  0.59125524  0.35360332  0.83960890    -0.56630
O576        O  0.53208654  0.25187554  0.76946569    -0.55800
O577        O  0.71636799  0.52189683  0.86165434    -0.57010
C578        C  0.62845594  0.42849258  0.80692495     0.75620
O579        O  0.74903409  0.40248963  0.78024861    -0.58170
C580        C  0.75667783  0.52181953  0.86885584     0.75590
C581        C  0.75208508  0.38899419  0.89962550     0.77980
Cd582      Cd  0.71574251  0.44503113  0.83640867     1.37470
O583        O  0.63440362  0.43356586  0.84772808    -0.57010
O584        O  0.71508665  0.40547709  0.90519684    -0.55820
C585        C  0.75633970  0.43543560  0.75636974     0.77940
O586        O  0.76897738  0.39255529  0.86215729    -0.58190
O587        O  0.66117080  0.43486531  0.78312094    -0.56640
O588        O  0.77672786  0.48783083  0.85949514    -0.56630
O589        O  0.74107431  0.47167657  0.76805825    -0.55800
O590        O  0.31514134  0.43978733  0.85678333    -0.57010
C591        C  0.40343461  0.53879066  0.80091003     0.75620
O592        O  0.27061611  0.55631810  0.78118602    -0.58170
C593        C  0.27429507  0.43814605  0.86130163     0.75590
C594        C  0.27716339  0.56159534  0.90273953     0.77980
Cd595      Cd  0.31494225  0.51699129  0.83110419     1.37470
O596        O  0.39163502  0.49963098  0.80661174    -0.57010
O597        O  0.30229137  0.52986096  0.90878740    -0.55820
C598        C  0.26201705  0.52249530  0.75949777     0.77940
O599        O  0.27596341  0.57754027  0.86466038    -0.58190
O600        O  0.37551353  0.56654936  0.81181494    -0.56640
O601        O  0.25360514  0.47135288  0.85026781    -0.56630
O602        O  0.28385835  0.48877045  0.76639100    -0.55800
C603        C  0.44675597  0.55275563  0.77923537    -0.01680
C604        C  0.58588994  0.41314397  0.78642883    -0.01680
O605        O  0.16743827  0.49362274  0.60082276    -0.57010
C606        C  0.11830498  0.43704112  0.72351306     0.75620
O607        O  0.20606770  0.55469883  0.71923493    -0.58170
C608        C  0.18549994  0.53004975  0.59320984     0.75590
C609        C  0.08109851  0.56546177  0.71306215     0.77980
Cd610      Cd  0.15058614  0.51379227  0.68165221     1.37470
O611        O  0.13054153  0.43517202  0.68377041    -0.57010
O612        O  0.07705495  0.54307285  0.67836975    -0.55820
C613        C  0.22554987  0.52079248  0.73092846     0.77940
O614        O  0.11836349  0.56851038  0.72909432    -0.58190
O615        O  0.12149055  0.47322081  0.74234708    -0.56640
O616        O  0.18340465  0.55712532  0.62433657    -0.56630
O617        O  0.21097915  0.48451959  0.71834095    -0.55800
O618        O  0.13622960  0.51708150  0.27389207    -0.57010
C619        C  0.18671355  0.42114717  0.36107141     0.75620
O620        O  0.12591583  0.39248732  0.21826544    -0.58170
C621        C  0.13556356  0.52050076  0.23247487     0.75590
C622        C  0.23883175  0.42954350  0.22779811     0.77980
Cd623      Cd  0.16103039  0.44092156  0.27184253     1.37460
O624        O  0.17998905  0.46046836  0.35107206    -0.57010
O625        O  0.23097253  0.46417373  0.24840263    -0.55820
C626        C  0.08919589  0.39273527  0.23615225     0.77940
O627        O  0.21351790  0.39760245  0.23312766    -0.58190
O628        O  0.17795654  0.39389745  0.33144167    -0.56640
O629        O  0.14861915  0.48858161  0.21057544    -0.56630
O630        O  0.08618791  0.41224256  0.27264378    -0.55800
O631        O  0.14120132  0.68007144  0.44068168    -0.57010
C632        C  0.18824465  0.58601042  0.53789274     0.75620
O633        O  0.21577134  0.71521694  0.56075758    -0.58170
C634        C  0.13086722  0.71992458  0.44263196     0.75590
C635        C  0.09304877  0.71191146  0.57179203     0.77980
Cd636      Cd  0.16117643  0.67622604  0.51997145     1.37470
O637        O  0.17125399  0.59472773  0.50122873    -0.57010
O638        O  0.08763877  0.67630683  0.55138947    -0.55820
C639        C  0.23765610  0.72352813  0.52677343     0.77940
O640        O  0.13084389  0.72719212  0.57291996    -0.58190
O641        O  0.18904462  0.61754740  0.56455343    -0.56640
O642        O  0.13503053  0.73830140  0.47906952    -0.56630
O643        O  0.22738455  0.70455943  0.49161315    -0.55800
O644        O  0.12213824  0.27912929  0.51348362    -0.57010
C645        C  0.18387588  0.36451379  0.41966563     0.75620
O646        O  0.20548021  0.23485278  0.39770334    -0.58170
C647        C  0.11737184  0.23818925  0.51563244     0.75590
C648        C  0.09202849  0.23863945  0.38165898     0.77980
Cd649      Cd  0.15367335  0.27636615  0.43820759     1.37460
O650        O  0.19889827  0.34123696  0.44981908    -0.57010
O651        O  0.08548524  0.27530808  0.39949485    -0.55820
C652        C  0.23096057  0.23237970  0.42968111     0.77940
O653        O  0.12909976  0.22243350  0.38535223    -0.58190
O654        O  0.15010309  0.34944604  0.40164670    -0.56640
O655        O  0.12968410  0.21655186  0.48324300    -0.56630
O656        O  0.22243502  0.25391981  0.46376206    -0.55800
C657        C  0.20779874  0.40570760  0.40369169    -0.01680
C658        C  0.21011843  0.54238623  0.55088277    -0.01680
C659        C  0.23833840  0.43877192  0.47654052    -0.01040
C660        C  0.20618078  0.43911156  0.44367335     0.08640
C661        C  0.16924626  0.46453732  0.45460857    -0.01160
C662        C  0.16964409  0.49487990  0.49042306    -0.01160
C663        C  0.20802632  0.50409190  0.51476278     0.08770
C664        C  0.24155218  0.47243284  0.50832776    -0.01360
Br665      Br  0.29180941  0.46748016  0.54417693     0.00100
Br666      Br  0.27286796  0.38692396  0.48566817     0.00020
Br667      Br  0.11480537  0.51768277  0.50992016     0.00060
Br668      Br  0.11484622  0.45306339  0.42606696     0.00080
C669        C  0.48784172  0.48970230  0.82059441    -0.01040
C670        C  0.48439072  0.51782849  0.78340767     0.08640
C671        C  0.52208092  0.51902381  0.75613234    -0.01160
C672        C  0.55706106  0.49000089  0.76299116    -0.01160
C673        C  0.55256249  0.45248116  0.79019469     0.08770
C674        C  0.51855727  0.45525647  0.82194871    -0.01360
Br675      Br  0.51692399  0.41818345  0.87317752     0.00100
Br676      Br  0.45858820  0.50367506  0.87506045     0.00020
Br677      Br  0.61242785  0.50532347  0.73780636     0.00060
Br678      Br  0.52931241  0.56120508  0.70965602     0.00080
C679        C  0.05574117  0.68232307  0.96530732    -0.01040
C680        C  0.04914354  0.66709568  0.00911978     0.08640
C681        C  0.00902509  0.64314772  0.01529030    -0.01160
C682        C  0.98008859  0.63640478  0.98000111    -0.01160
C683        C  0.98407557  0.66096625  0.94118771     0.08770
C684        C  0.02707175  0.67180858  0.93162589    -0.01360
Br685      Br  0.05539826  0.63977862  0.88538882     0.00100
Br686      Br  0.10192948  0.71856528  0.94517378     0.00020
Br687      Br  0.95703915  0.57798384  0.97530517     0.00060
Br688      Br  0.98512349  0.62182803  0.06980226     0.00080
C689        C  0.66614319  0.95564212  0.96738821    -0.01040
C690        C  0.70738188  0.95026953  0.94562760     0.08640
C691        C  0.73657574  0.98618916  0.95178593    -0.01160
C692        C  0.72082381  0.02442972  0.96915211    -0.01160
C693        C  0.69403523  0.02061195  0.00561222     0.08770
C694        C  0.66068702  0.98906915  0.99988597    -0.01360
Br695      Br  0.60446111  0.99821888  0.02551816     0.00100
Br696      Br  0.61552280  0.92255011  0.95073986     0.00020
Br697      Br  0.69672779  0.05862190  0.92257792     0.00060
Br698      Br  0.79593784  0.99323634  0.93594499     0.00080
C699        C  0.48076549  0.81155903  0.46825477    -0.01040
C700        C  0.48508688  0.79555197  0.51200574     0.08640
C701        C  0.52834819  0.78270293  0.52264633    -0.01160
C702        C  0.56229955  0.78180864  0.49039149    -0.01160
C703        C  0.55314838  0.78591510  0.44451620     0.08770
C704        C  0.50977419  0.79837979  0.43488502    -0.01360
Br705      Br  0.48205042  0.78643379  0.37925617     0.00100
Br706      Br  0.43724022  0.85215292  0.44959184     0.00020
Br707      Br  0.61921312  0.76500121  0.51022456     0.00060
Br708      Br  0.54434928  0.76659859  0.58155862     0.00080
C709        C  0.04446410  0.98487084  0.63291617    -0.01040
C710        C  0.04926622  0.01625971  0.66714429     0.08640
C711        C  0.01356030  0.01861661  0.69682598    -0.01160
C712        C  0.98113655  0.98539581  0.69878143    -0.01160
C713        C  0.98231917  0.94815847  0.67081771     0.08770
C714        C  0.01181299  0.95172838  0.63465439    -0.01360
Br715      Br  0.00400097  0.91713361  0.58218615     0.00100
Br716      Br  0.07629240  0.99095284  0.57839922     0.00020
Br717      Br  0.93303807  0.99432438  0.73822710     0.00060
Br718      Br  0.00578664  0.06970537  0.73298675     0.00080
C719        C  0.79463597  0.51036880  0.47023031    -0.01040
C720        C  0.83090243  0.51709661  0.44392282     0.08640
C721        C  0.86824508  0.49417832  0.45770093    -0.01160
C722        C  0.86484825  0.46086931  0.49077244    -0.01160
C723        C  0.82328515  0.44595755  0.50619176     0.08770
C724        C  0.78785557  0.47015831  0.48955546    -0.01360
Br725      Br  0.73271119  0.44753260  0.47304020     0.00100
Br726      Br  0.77452806  0.55875763  0.50381208     0.00020
Br727      Br  0.91760919  0.43674734  0.51319009     0.00060
Br728      Br  0.92430806  0.51156747  0.43615113     0.00080
C729        C  0.55353861  0.19343033  0.46995720    -0.01040
C730        C  0.54888798  0.17427134  0.51259911     0.08640
C731        C  0.50772814  0.15276356  0.51945786    -0.01160
C732        C  0.47765233  0.14676081  0.48469747    -0.01160
C733        C  0.47983068  0.17214334  0.44565119     0.08770
C734        C  0.51939059  0.19491077  0.43894105    -0.01360
Br735      Br  0.52993764  0.22698541  0.38507160     0.00100
Br736      Br  0.60668051  0.21785468  0.44953494     0.00020
Br737      Br  0.43939218  0.09683422  0.48989846     0.00060
Br738      Br  0.48470711  0.13459983  0.57576369     0.00080
C739        C  0.47015485  0.49112233  0.17626330    -0.01040
C740        C  0.48005916  0.44750348  0.16357522     0.08640
C741        C  0.52197682  0.44208411  0.14372444    -0.01160
C742        C  0.55152739  0.47737512  0.14006674    -0.01160
C743        C  0.54517316  0.51702069  0.16344487     0.08770
C744        C  0.50071934  0.52567307  0.17168362    -0.01360
Br745      Br  0.47887376  0.58447195  0.17656294     0.00100
Br746      Br  0.41712385  0.50527648  0.20670085     0.00020
Br747      Br  0.58989843  0.47449666  0.08963646     0.00060
Br748      Br  0.54693104  0.38702737  0.12669357     0.00080
C749        C  0.00675121  0.26136472  0.93872773    -0.01040
C750        C  0.04733117  0.28285312  0.94389679     0.08640
C751        C  0.04930248  0.31170931  0.98042599    -0.01160
C752        C  0.01890216  0.30866314  0.01579924    -0.01160
C753        C  0.97793521  0.28622416  0.01074907     0.08770
C754        C  0.97147026  0.26968174  0.96742152    -0.01360
Br755      Br  0.91516451  0.26461242  0.94155339     0.00100
Br756      Br  0.99687500  0.21881897  0.89324661     0.00020
Br757      Br  0.03719250  0.33943265  0.06790664     0.00060
Br758      Br  0.08625993  0.36290546  0.97932217     0.00080
C759        C  0.36182354  0.95806750  0.99735040    -0.01040
C760        C  0.32195684  0.93838665  0.01158634     0.08640
C761        C  0.28544664  0.95286841  0.98855033    -0.01160
C762        C  0.28555772  0.99350439  0.96810699    -0.01160
C763        C  0.32381290  0.01182921  0.94991481     0.08770
C764        C  0.36274824  0.99261973  0.96540981    -0.01360
Br765      Br  0.41801856  0.01478240  0.94589188     0.00100
Br766      Br  0.41619394  0.93587235  0.01770823     0.00020
Br767      Br  0.23878407  0.02848970  0.98788469     0.00060
Br768      Br  0.23836835  0.91523479  0.97275889     0.00080
C769        C  0.98545265  0.98185970  0.32230578    -0.01040
C770        C  0.98096936  0.00975787  0.28457008     0.08640
C771        C  0.01797799  0.01112664  0.25635797    -0.01160
C772        C  0.05530821  0.98796593  0.26722449    -0.01160
C773        C  0.05182613  0.94904689  0.29152481     0.08770
C774        C  0.02070486  0.95206902  0.32570446    -0.01360
Br775      Br  0.03466581  0.92949160  0.38300713     0.00100
Br776      Br  0.94812604  0.98632595  0.37303259     0.00020
Br777      Br  0.09580020  0.02995325  0.29023888     0.00060
Br778      Br  0.02610489  0.05211685  0.20920261     0.00080
C779        C  0.09536123  0.01827261  0.95645517    -0.01040
C780        C  0.04953118  0.01826493  0.95477439     0.08640
C781        C  0.03279905  0.05042267  0.92588514    -0.01160
C782        C  0.05972802  0.07067641  0.89344952    -0.01160
C783        C  0.10553383  0.06294706  0.89047645     0.08770
C784        C  0.12078197  0.03205585  0.92141809    -0.01360
Br785      Br  0.16797043  0.99296703  0.91413054     0.00100
Br786      Br  0.12821044  0.01631075  0.00939748     0.00020
Br787      Br  0.02973627  0.10286645  0.84939360     0.00060
Br788      Br  0.97281723  0.06893405  0.92980440     0.00080
C789        C  0.13789774  0.09153009  0.72881709    -0.01040
C790        C  0.10621227  0.05911507  0.71757578     0.08640
C791        C  0.09996788  0.02790752  0.75056933    -0.01160
C792        C  0.10561962  0.03815020  0.79542745    -0.01160
C793        C  0.12690913  0.07809628  0.80874623     0.08770
C794        C  0.14839256  0.10020135  0.77338375    -0.01360
Br795      Br  0.19370151  0.14257878  0.78395191     0.00100
Br796      Br  0.17579978  0.11861871  0.68577128     0.00020
Br797      Br  0.09910629  0.98751715  0.83228560     0.00060
Br798      Br  0.10515688  0.96781292  0.73304945     0.00080
C799        C  0.11045482  0.17413665  0.84105737    -0.01040
C800        C  0.12219224  0.14060834  0.87149262     0.08640
C801        C  0.12079627  0.15528028  0.91681815    -0.01160
C802        C  0.10613157  0.19785528  0.92896329    -0.01160
C803        C  0.09792644  0.23015302  0.89683101     0.08770
C804        C  0.10994426  0.21784610  0.85389573    -0.01360
Br805      Br  0.13999236  0.25752239  0.81519325     0.00100
Br806      Br  0.08325228  0.16800734  0.78484693     0.00020
Br807      Br  0.10515051  0.21328261  0.99028894     0.00060
Br808      Br  0.14416725  0.12135778  0.96420028     0.00080
C809        C  0.21253463  0.04747801  0.84973097    -0.01040
C810        C  0.18785976  0.08379921  0.86663509     0.08640
C811        C  0.21444570  0.11317645  0.89128264    -0.01160
C812        C  0.25243603  0.09942671  0.91229552    -0.01160
C813        C  0.27389126  0.06039414  0.89998133     0.08770
C814        C  0.25149807  0.03378578  0.86971897    -0.01360
Br815      Br  0.26969099  0.97400155  0.86025997     0.00100
Br816      Br  0.20068190  0.01522610  0.79697979     0.00020
Br817      Br  0.26619160  0.13102666  0.96529879     0.00060
Br818      Br  0.21260246  0.17574197  0.88554099     0.00080
C819        C  0.07165627  0.92722040  0.08615046    -0.01040
C820        C  0.09762835  0.89347725  0.06778696     0.08640
C821        C  0.09357484  0.89030112  0.02046030    -0.01160
C822        C  0.07602103  0.92408553  0.99469908    -0.01160
C823        C  0.05124464  0.95779037  0.01396148     0.08770
C824        C  0.05563197  0.96140064  0.06046230    -0.01360
Br825      Br  0.05495299  0.01553818  0.09265178     0.00100
Br826      Br  0.04799542  0.92840335  0.14454770     0.00020
Br827      Br  0.08319768  0.91985974  0.93143418     0.00060
Br828      Br  0.08150449  0.83627469  0.98968989     0.00080
C829        C  0.07381168  0.79601987  0.08379205    -0.01040
C830        C  0.11636793  0.81458998  0.07899371     0.08640
C831        C  0.14349362  0.79099998  0.04940315    -0.01160
C832        C  0.13629020  0.74633087  0.04127014    -0.01160
C833        C  0.09595688  0.72512125  0.05176460     0.08770
C834        C  0.06374095  0.75316187  0.06914982    -0.01360
Br835      Br  0.00415446  0.73406566  0.07313189     0.00100
Br836      Br  0.02595832  0.82871090  0.10700318     0.00020
Br837      Br  0.18320254  0.72054194  0.00991961     0.00060
Br838      Br  0.18175793  0.82061147  0.00671164     0.00080
C839        C  0.12862518  0.91986825  0.21045101    -0.01040
C840        C  0.09471769  0.89987822  0.23523146     0.08640
C841        C  0.07707549  0.86148550  0.21520047    -0.01160
C842        C  0.09552773  0.84287971  0.17682218    -0.01160
C843        C  0.12397971  0.86703511  0.14937380     0.08770
C844        C  0.14648912  0.89964483  0.17336472    -0.01360
Br845      Br  0.20744970  0.89358321  0.18210943     0.00100
Br846      Br  0.15433760  0.97533598  0.22304074     0.00020
Br847      Br  0.09873291  0.78082588  0.17799965     0.00060
Br848      Br  0.02045505  0.83978538  0.23034173     0.00080
C849        C  0.21252458  0.84280735  0.09619435    -0.01040
C850        C  0.17905717  0.87378181  0.08751408     0.08640
C851        C  0.19556899  0.91734010  0.08219306    -0.01160
C852        C  0.24052135  0.92594314  0.07518632    -0.01160
C853        C  0.27016767  0.89201827  0.06611307     0.08770
C854        C  0.25641908  0.85081005  0.08359992    -0.01360
Br855      Br  0.29724117  0.80693777  0.10073169     0.00100
Br856      Br  0.20058829  0.79136249  0.13141354     0.00020
Br857      Br  0.26284438  0.98361990  0.08785927     0.00060
Br858      Br  0.16198982  0.96706276  0.09830275     0.00080
C859        C  0.93517549  0.94138127  0.89709049    -0.01040
C860        C  0.93475541  0.89472279  0.89895057     0.08640
C861        C  0.96266423  0.87932115  0.93324237    -0.01160
C862        C  0.98109016  0.90864473  0.96450092    -0.01160
C863        C  0.99062216  0.95352582  0.95405001     0.08770
C864        C  0.96988722  0.96558578  0.91419899    -0.01360
Br865      Br  0.99990607  0.98661423  0.86352190     0.00100
Br866      Br  0.89487429  0.97856246  0.86902421     0.00020
Br867      Br  0.98521343  0.88344304  0.02158376     0.00060
Br868      Br  0.97908376  0.81985656  0.94249860     0.00080
C869        C  0.89397337  0.85570772  0.78146696    -0.01040
C870        C  0.91872633  0.87380776  0.81680645     0.08640
C871        C  0.96095651  0.88896288  0.80376040    -0.01160
C872        C  0.97102438  0.89698986  0.75880879    -0.01160
C873        C  0.93958475  0.89336754  0.72550323     0.08770
C874        C  0.90368497  0.86592328  0.73693578    -0.01360
Br875      Br  0.86874153  0.83752791  0.69263619     0.00100
Br876      Br  0.84576971  0.81667387  0.79257256     0.00020
Br877      Br  0.03048191  0.89539995  0.74129395     0.00060
Br878      Br  0.01075455  0.88012893  0.84119790     0.00080
C879        C  0.94688323  0.78781105  0.85244518    -0.01040
C880        C  0.91180973  0.81220891  0.87228157     0.08640
C881        C  0.88668558  0.78548887  0.90107718    -0.01160
C882        C  0.90289504  0.74661745  0.91998701    -0.01160
C883        C  0.93910585  0.72401137  0.90238116     0.08770
C884        C  0.96267443  0.74852125  0.87060958    -0.01360
Br885      Br  0.02064160  0.73397938  0.85333895     0.00100
Br886      Br  0.96408244  0.79051613  0.79142799     0.00020
Br887      Br  0.88176741  0.73400941  0.97792288     0.00060
Br888      Br  0.82497996  0.78515647  0.89776046     0.00080
C889        C  0.82775970  0.90668057  0.84805906    -0.01040
C890        C  0.85585894  0.88194648  0.87738384     0.08640
C891        C  0.83872159  0.87895783  0.92160723    -0.01160
C892        C  0.79488939  0.88879561  0.93223284    -0.01160
C893        C  0.76628885  0.90637924  0.90097147     0.08770
C894        C  0.78603954  0.92109455  0.86157870    -0.01360
Br895      Br  0.76319302  0.97345536  0.83378724     0.00100
Br896      Br  0.84296835  0.93191468  0.79117530     0.00020
Br897      Br  0.77576698  0.88419771  0.99271571     0.00060
Br898      Br  0.87257338  0.85976246  0.97091973     0.00080
C899        C  0.96760232  0.07693437  0.05986046    -0.01040
C900        C  0.92337604  0.06346118  0.06182274     0.08640
C901        C  0.91559084  0.02168284  0.04137442    -0.01160
C902        C  0.95092895  0.99554093  0.03167270    -0.01160
C903        C  0.98889462  0.01456793  0.01433954     0.08770
C904        C  0.99651761  0.05822469  0.02934921    -0.01360
Br905      Br  0.04807341  0.09240796  0.01761534     0.00100
Br906      Br  0.99338700  0.11375161  0.10365376     0.00020
Br907      Br  0.95735948  0.95922324  0.08189873     0.00060
Br908      Br  0.86268962  0.98881850  0.03194042     0.00080
C909        C  0.77166052  0.04335388  0.09113068    -0.01040
C910        C  0.75155110  0.05983557  0.05321463     0.08640
C911        C  0.77997244  0.08450218  0.02563241    -0.01160
C912        C  0.82496755  0.08461793  0.03322373    -0.01160
C913        C  0.84145421  0.07893256  0.07685349     0.08770
C914        C  0.80964263  0.06286039  0.10699388    -0.01360
Br915      Br  0.80925832  0.07107240  0.16937430     0.00100
Br916      Br  0.75945221  0.98541607  0.11148538     0.00020
Br917      Br  0.85850704  0.07819980  0.97982873     0.00060
Br918      Br  0.76180033  0.12213017  0.97918269     0.00080
C919        C  0.90432001  0.03524359  0.15662790    -0.01040
C920        C  0.90222354  0.07984079  0.14050524     0.08640
C921        C  0.91257841  0.11066900  0.17465845    -0.01160
C922        C  0.91537100  0.09766418  0.21894031    -0.01160
C923        C  0.92949015  0.05554907  0.23085416     0.08770
C924        C  0.92331604  0.02388699  0.19769920    -0.01360
Br925      Br  0.93541445  0.96305113  0.20907111     0.00100
Br926      Br  0.87001050  0.98826536  0.13442805     0.00020
Br927      Br  0.88608907  0.13463930  0.26037340     0.00060
Br928      Br  0.93202796  0.16981061  0.16903568     0.00080
C929        C  0.92020860  0.15629803  0.03883241    -0.01040
C930        C  0.89512685  0.14255879  0.07551616     0.08640
C931        C  0.87309735  0.17871881  0.09460088    -0.01160
C932        C  0.88929941  0.22258364  0.08848380    -0.01160
C933        C  0.92623229  0.23196966  0.06034945     0.08770
C934        C  0.94529212  0.19417116  0.04268975    -0.01360
Br935      Br  0.00281386  0.19077669  0.02195498     0.00100
Br936      Br  0.88601424  0.17288808  0.98927421     0.00020
Br937      Br  0.86282724  0.26777412  0.12351745     0.00060
Br938      Br  0.82255409  0.17041702  0.13017539     0.00080
C939        C  0.47434575  0.40179649  0.45822243    -0.01040
C940        C  0.48189558  0.44790930  0.45374688     0.08640
C941        C  0.45934930  0.46587940  0.41667227    -0.01160
C942        C  0.43711563  0.43914690  0.38503899    -0.01160
C943        C  0.43209852  0.39298219  0.39098963     0.08770
C944        C  0.46003189  0.37618759  0.42376384    -0.01360
Br945      Br  0.49347977  0.32320408  0.42071182     0.00100
Br946      Br  0.46954883  0.36786602  0.51170682     0.00020
Br947      Br  0.40992300  0.46877813  0.33591009     0.00060
Br948      Br  0.44286092  0.52578857  0.41434772     0.00080
C949        C  0.45554526  0.38374893  0.29759488    -0.01040
C950        C  0.41159873  0.37389202  0.31172790     0.08640
C951        C  0.38153370  0.37356678  0.27601619    -0.01160
C952        C  0.39632982  0.37595044  0.23239632    -0.01160
C953        C  0.43482379  0.39913733  0.22115965     0.08770
C954        C  0.46551440  0.40115170  0.25539413    -0.01360
Br955      Br  0.52458388  0.41980326  0.24483191     0.00100
Br956      Br  0.50587275  0.36715097  0.32950220     0.00020
Br957      Br  0.36725938  0.33794322  0.19054975     0.00060
Br958      Br  0.31987251  0.36985900  0.27861840     0.00080
C959        C  0.41964075  0.27933024  0.34323126    -0.01040
C960        C  0.40817169  0.31285040  0.37408618     0.08640
C961        C  0.40126498  0.29664267  0.41815343    -0.01160
C962        C  0.41696764  0.25484396  0.43118362    -0.01160
C963        C  0.42853950  0.22310547  0.39927424     0.08770
C964        C  0.41869985  0.23541968  0.35601458    -0.01360
Br965      Br  0.38538180  0.19613503  0.31942868     0.00100
Br966      Br  0.43271718  0.28492295  0.28209155     0.00020
Br967      Br  0.42328462  0.24360772  0.49302401     0.00060
Br968      Br  0.37332485  0.33105611  0.46278237     0.00080
C969        C  0.33224888  0.41478586  0.38556782    -0.01040
C970        C  0.34829303  0.37259161  0.37387328     0.08640
C971        C  0.31339321  0.34055022  0.37035446    -0.01160
C972        C  0.26875122  0.35200691  0.37469617    -0.01160
C973        C  0.25563167  0.39413226  0.38808144     0.08770
C974        C  0.28812731  0.42613356  0.38421297    -0.01360
Br975      Br  0.27397956  0.48712489  0.38044419     0.00100
Br976      Br  0.35543793  0.44645396  0.43289537     0.00020
Br977      Br  0.22671411  0.31446086  0.34632372     0.00060
Br978      Br  0.32058363  0.28036289  0.35436636     0.00080
C979        C  0.62330586  0.52999881  0.43850241    -0.01040
C980        C  0.60730966  0.55503919  0.40208922     0.08640
C981        C  0.56150982  0.55883985  0.40192697    -0.01160
C982        C  0.53610759  0.54090917  0.43567686    -0.01160
C983        C  0.54875513  0.50520598  0.46196721     0.08770
C984        C  0.59550726  0.50385891  0.46614678    -0.01360
Br985      Br  0.62580295  0.47614237  0.51498585     0.00100
Br986      Br  0.67949899  0.54139244  0.46272192     0.00020
Br987      Br  0.50968688  0.58875360  0.46352767     0.00060
Br988      Br  0.53016509  0.59522944  0.36100746     0.00080
C989        C  0.64901248  0.58772241  0.28134256    -0.01040
C990        C  0.62575267  0.56948329  0.31795554     0.08640
C991        C  0.59311350  0.53844242  0.30473470    -0.01160
C992        C  0.57438441  0.53985886  0.26265157    -0.01160
C993        C  0.59607250  0.55837926  0.22578426     0.08770
C994        C  0.63431329  0.58306007  0.23707776    -0.01360
Br995      Br  0.66536614  0.61761665  0.19338088     0.00100
Br996      Br  0.70092423  0.62236774  0.28908116     0.00020
Br997      Br  0.51323293  0.53191592  0.26656436     0.00060
Br998      Br  0.57363563  0.48723831  0.33741496     0.00080
C999        C  0.62181669  0.66842404  0.34574957    -0.01040
C1000       C  0.62123495  0.63405643  0.37758256     0.08640
C1001       C  0.60506927  0.64942120  0.41940087    -0.01160
C1002       C  0.58469053  0.69038441  0.42373922    -0.01160
C1003       C  0.59721819  0.72595048  0.39662926     0.08770
C1004       C  0.62233040  0.71246905  0.35939788    -0.01360
Br1005     Br  0.65682344  0.75100170  0.32320827     0.00100
Br1006     Br  0.59156074  0.66468054  0.29115825     0.00020
Br1007     Br  0.53792425  0.69115755  0.46474384     0.00060
Br1008     Br  0.61808548  0.62484339  0.47559192     0.00080
C1009       C  0.71758441  0.60975099  0.38914931    -0.01040
C1010       C  0.68723167  0.57655625  0.37537769     0.08640
C1011       C  0.70748382  0.53504492  0.36686184    -0.01160
C1012       C  0.75167998  0.52673430  0.37739670    -0.01160
C1013       C  0.77972186  0.56040855  0.39203346     0.08770
C1014       C  0.76246815  0.60245407  0.38846404    -0.01360
Br1015     Br  0.79613584  0.64675282  0.35933582     0.00100
Br1016     Br  0.70531968  0.66667998  0.41162027     0.00020
Br1017     Br  0.77423206  0.46876312  0.36806411     0.00060
Br1018     Br  0.67633258  0.48573042  0.34514200     0.00080
C1019       C  0.58408422  0.37529844  0.52106650    -0.01040
C1020       C  0.58837996  0.38068627  0.56659964     0.08640
C1021       C  0.54841718  0.39565150  0.58277899    -0.01160
C1022       C  0.52745044  0.43065721  0.56220890    -0.01160
C1023       C  0.53617227  0.43981545  0.51666563     0.08770
C1024       C  0.56339637  0.40772407  0.49586976    -0.01360
Br1025     Br  0.57559246  0.40615630  0.43368380     0.00100
Br1026     Br  0.56806062  0.31781341  0.50182933     0.00020
Br1027     Br  0.48452516  0.45633892  0.60015521     0.00060
Br1028     Br  0.51086363  0.35706789  0.61490372     0.00080
C1029       C  0.58684224  0.29020877  0.60738174    -0.01040
C1030       C  0.62559357  0.31178170  0.59557200     0.08640
C1031       C  0.65624757  0.28343153  0.57617341    -0.01160
C1032       C  0.64300740  0.24509908  0.55423919    -0.01160
C1033       C  0.60025161  0.22696554  0.55904430     0.08770
C1034       C  0.57174801  0.25342903  0.58413577    -0.01360
Br1035     Br  0.51100419  0.24150183  0.58889341     0.00100
Br1036     Br  0.57030994  0.29045905  0.66814822     0.00020
Br1037     Br  0.68490363  0.22713007  0.51170701     0.00060
Br1038     Br  0.71714032  0.28472112  0.59041634     0.00080
C1039       C  0.64446072  0.36178780  0.68319103    -0.01040
C1040       C  0.62115762  0.37930303  0.64689765     0.08640
C1041       C  0.58990444  0.41082004  0.66011070    -0.01160
C1042       C  0.57212819  0.41100648  0.70224150    -0.01160
C1043       C  0.59624704  0.39738140  0.73801066     0.08770
C1044       C  0.63137856  0.36909105  0.72745184    -0.01360
Br1045     Br  0.66105949  0.33651191  0.77247201     0.00100
Br1046     Br  0.70096142  0.33842121  0.67607317     0.00020
Br1047     Br  0.51091276  0.41625922  0.70712077     0.00060
Br1048     Br  0.58776574  0.46794300  0.63437987     0.00080
C1049       C  0.69566327  0.36551946  0.53807516    -0.01040
C1050       C  0.67519181  0.38229154  0.57748186     0.08640
C1051       C  0.70180818  0.41565270  0.59811536    -0.01160
C1052       C  0.74352536  0.42741827  0.58163717    -0.01160
C1053       C  0.76684603  0.40010828  0.55248810     0.08770
C1054       C  0.74118133  0.36874629  0.53012532    -0.01360
Br1055     Br  0.76469140  0.33605306  0.48051779     0.00100
Br1056     Br  0.66610043  0.33955155  0.48972405     0.00020
Br1057     Br  0.76592077  0.48515910  0.59534637     0.00060
Br1058     Br  0.68755857  0.44942796  0.64945063     0.00080
C1059       C  0.47194219  0.57152630  0.56542451    -0.01040
C1060       C  0.42580202  0.57066231  0.56081509     0.08640
C1061       C  0.41088507  0.53717127  0.53201450    -0.01160
C1062       C  0.43724271  0.50293623  0.51852355    -0.01160
C1063       C  0.48284774  0.50628194  0.51768425     0.08770
C1064       C  0.49936591  0.53976004  0.54570579    -0.01360
Br1065     Br  0.55983482  0.54465308  0.55814196     0.00100
Br1066     Br  0.50115309  0.62018865  0.59178060     0.00020
Br1067     Br  0.40768609  0.44826719  0.52340896     0.00060
Br1068     Br  0.36011532  0.53771473  0.49736636     0.00080
C1069       C  0.31666982  0.57192908  0.61575447    -0.01040
C1070       C  0.34352353  0.59400038  0.58424101     0.08640
C1071       C  0.31877280  0.60807028  0.54701719    -0.01160
C1072       C  0.28072351  0.58587171  0.53369239    -0.01160
C1073       C  0.25814475  0.55718671  0.56216613     0.08770
C1074       C  0.27854243  0.54965736  0.60329066    -0.01360
Br1075     Br  0.26459003  0.49996720  0.63939179     0.00100
Br1076     Br  0.32013463  0.58054685  0.67853212     0.00020
Br1077     Br  0.26431262  0.59097835  0.47259826     0.00060
Br1078     Br  0.32464377  0.66367278  0.51886762     0.00080
C1079       C  0.40922968  0.54496262  0.65499572    -0.01040
C1080       C  0.41060005  0.58970868  0.63944565     0.08640
C1081       C  0.42505112  0.61972215  0.67262155    -0.01160
C1082       C  0.42564203  0.60772468  0.71700512    -0.01160
C1083       C  0.43301149  0.56442128  0.73039129     0.08770
C1084       C  0.42239698  0.53281129  0.69833152    -0.01360
Br1085     Br  0.41849363  0.47259032  0.71546901     0.00100
Br1086     Br  0.38355282  0.49844355  0.62150382     0.00020
Br1087     Br  0.39668093  0.64791109  0.75525529     0.00060
Br1088     Br  0.45273784  0.67560151  0.66569595     0.00080
C1089       C  0.42310197  0.66414222  0.53383841    -0.01040
C1090       C  0.40464456  0.65185641  0.57560630     0.08640
C1091       C  0.38627744  0.68774529  0.59855288    -0.01160
C1092       C  0.39904590  0.73142243  0.58934736    -0.01160
C1093       C  0.42971905  0.74166072  0.55517033     0.08770
C1094       C  0.43361452  0.70820691  0.52358596    -0.01360
Br1095     Br  0.43337807  0.72394118  0.46226571     0.00100
Br1096     Br  0.41683752  0.62723849  0.48299809     0.00020
Br1097     Br  0.36854565  0.77655388  0.62158795     0.00060
Br1098     Br  0.34172360  0.67922766  0.64216458     0.00080
loop_ 
_geom_bond_atom_site_label_1 
_geom_bond_atom_site_label_2 
_geom_bond_distance 
_geom_bond_site_symmetry_2 
_ccdc_geom_bond_type 
C1         C1060   1.621       .  S
C1         C1070   1.641       .  S
C1         C1080   1.636       .  S
C1         C1090   1.612       .  S
C2         C1020   1.634       .  S
C2         C1030   1.612       .  S
C2         C1040   1.625       .  S
C2         C1050   1.655       .  S
C3          C980   1.615       .  S
C3          C990   1.635       .  S
C3         C1000   1.642       .  S
C3         C1010   1.626       .  S
C4          C943   1.624       .  S
C4          C950   1.622       .  S
C4          C960   1.611       .  S
C4          C970   1.659       .  S
C5          C940   1.642       .  S
C5          C983   1.651       .  S
C5         C1023   1.592       .  S
C5         C1063   1.608       .  S
C6          C900   1.596       .  S
C6          C913   1.599       .  S
C6          C920   1.649       .  S
C6          C930   1.637       .  S
C7          C860   1.634       .  S
C7          C870   1.596       .  S
C7          C880   1.655       .  S
C7          C890   1.647       .  S
C8          C820   1.630       .  S
C8          C830   1.604       .  S
C8          C843   1.633       .  S
C8          C850   1.619       .  S
C9          C783   1.608       .  S
C9          C793   1.605       .  S
C9          C800   1.633       .  S
C9          C810   1.643       .  S
C10         C780   1.604   1_565  S
C10         C823   1.601   1_556  S
C10         C863   1.653   1_455  S
C10         C903   1.591   1_466  S
O11          C14   1.264       .  A
O11         Cd16   2.506       .  S
C12          O21   1.257       .  A
C12          O17   1.273       .  A
C12         C648   1.458       .  S
O13          C19   1.265       .  A
O13         Cd16   2.407       .  S
C14          C63   1.550       .  S
C14          O22   1.271       .  A
C15          O20   1.268       .  A
C15          O18   1.269       .  A
C15         C308   1.468       .  S
Cd16         O23   2.362   1_655  S
Cd16         O22   2.502       .  S
Cd16         O21   2.408   1_655  S
Cd16         O17   2.491   1_655  S
Cd16         O20   2.474       .  S
Cd16         O18   2.431       .  S
C19          O23   1.264   1_655  A
C19         C123   1.435       .  S
O24          C27   1.272       .  A
O24         Cd29   2.500   1_545  S
C25          C64   1.535       .  S
C25          O34   1.266       .  A
C25          O30   1.270       .  A
O26          C32   1.264       .  A
O26         Cd29   2.374       .  S
C27          O35   1.257   1_545  A
C27         C270   1.459       .  S
C28          O33   1.261       .  A
C28          O31   1.272       .  A
C28         C429   1.457       .  S
Cd29         O36   2.393       .  S
Cd29         O35   2.400       .  S
Cd29         O34   2.407       .  S
Cd29         O30   2.541       .  S
Cd29         O33   2.426       .  S
Cd29         O31   2.449       .  S
C32          O36   1.265       .  A
C32          C69   1.436       .  S
O37          C40   1.270       .  A
O37         Cd42   2.501   1_655  S
C38          C64   1.551       .  S
C38          O47   1.268       .  A
C38          O43   1.268       .  A
O39          C45   1.263       .  A
O39         Cd42   2.448       .  S
C40          O48   1.257   1_655  A
C40         C324   1.458       .  S
C41          O46   1.263       .  A
C41          O44   1.262       .  A
C41         C501   1.437       .  S
Cd42         O49   2.460       .  S
Cd42         O48   2.405       .  S
Cd42         O47   2.438       .  S
Cd42         O43   2.554       .  S
Cd42         O46   2.403       .  S
Cd42         O44   2.385       .  S
C45          O49   1.274       .  A
C45         C634   1.467       .  S
O50          C53   1.274       .  A
O50         Cd55   2.472   1_565  S
C51          C63   1.543       .  S
C51          O60   1.269       .  A
C51          O56   1.265   1_545  A
O52          C58   1.265       .  A
O52         Cd55   2.390       .  S
C53          O61   1.260       .  A
C53         C423   1.458       .  S
C54          O59   1.267       .  A
C54          O57   1.269       .  A
C54         C254   1.469       .  S
Cd55         O62   2.356   1_545  S
Cd55         O61   2.418   1_545  S
Cd55         O60   2.463       .  S
Cd55         O56   2.517   1_545  S
Cd55         O59   2.478       .  S
Cd55         O57   2.441       .  S
C58          O62   1.262   1_545  A
C58         C447   1.431       .  S
C63         C770   1.592       .  S
C63         C923   1.598       .  S
C64         C773   1.598       .  S
C64         C840   1.604       .  S
O65          C68   1.274       .  A
O65         Cd70   2.489   1_545  S
C66         C117   1.544       .  S
C66          O75   1.265       .  A
C66          O71   1.272       .  A
O67          C73   1.262       .  A
O67         Cd70   2.457       .  S
C68          O76   1.258   1_545  A
C68         C244   1.459       .  S
C69          O74   1.265       .  A
C69          O72   1.264       .  A
Cd70         O77   2.457       .  S
Cd70         O76   2.407       .  S
Cd70         O75   2.418       .  S
Cd70         O71   2.561       .  S
Cd70         O74   2.374       .  S
Cd70         O72   2.386       .  S
C73          O77   1.272       .  A
C73         C390   1.467       .  S
O78          C81   1.266       .  A
O78         Cd83   2.466   1_554  S
C79         C118   1.533       .  S
C79          O88   1.264       .  A
C79          O84   1.269       .  A
O80          C86   1.264       .  A
O80         Cd83   2.435       .  S
C81          O89   1.265   1_554  A
C81         C190   1.457       .  S
C82          O87   1.262       .  A
C82          O85   1.271       .  A
C82         C565   1.461       .  S
Cd83         O90   2.365       .  S
Cd83         O89   2.404       .  S
Cd83         O88   2.374       .  S
Cd83         O84   2.587       .  S
Cd83         O87   2.450       .  S
Cd83         O85   2.450       .  S
C86          O90   1.263       .  A
C86         C136   1.438       .  S
O91          C94   1.271       .  A
O91         Cd96   2.590       .  S
C92         O101   1.257       .  A
C92          O97   1.272       .  A
C92         C406   1.464       .  S
O93          C99   1.264       .  A
O93         Cd96   2.427       .  S
C94         C118   1.553       .  S
C94         O102   1.268       .  A
C95         O100   1.262       .  A
C95          O98   1.272       .  A
C95         C230   1.472       .  S
Cd96        O103   2.406   1_545  S
Cd96        O102   2.413       .  S
Cd96        O101   2.420   1_545  S
Cd96         O97   2.510   1_545  S
Cd96        O100   2.468       .  S
Cd96         O98   2.483       .  S
C99         O103   1.264   1_545  A
C99         C352   1.447       .  S
O104        C107   1.272       .  A
O104       Cd109   2.504   1_556  S
C105        C117   1.540       .  S
C105        O114   1.271       .  A
C105        O110   1.265       .  A
O106        C112   1.264       .  A
O106       Cd109   2.407       .  S
C107        O115   1.254       .  A
C107        C555   1.457       .  S
C108        O113   1.267       .  A
C108        O111   1.272       .  A
C108        C202   1.466       .  S
Cd109       O116   2.358   1_554  S
Cd109       O115   2.395   1_554  S
Cd109       O114   2.488       .  S
Cd109       O110   2.548       .  S
Cd109       O113   2.461       .  S
Cd109       O111   2.425       .  S
C112        O116   1.264   1_554  A
C112        C514   1.433       .  S
C117        C760   1.601       .  S
C117        C853   1.610       .  S
C118        C763   1.601       .  S
C118        C813   1.594       .  S
O119        C122   1.265       .  A
O119       Cd124   2.494       .  S
C120        O129   1.256       .  A
C120        O125   1.272       .  A
C120        C626   1.470       .  S
O121        C127   1.266       .  A
O121       Cd124   2.446       .  S
C122        C171   1.528       .  S
C122        O130   1.271       .  A
C123        O128   1.267       .  A
C123        O126   1.264   1_655  A
Cd124       O131   2.430       .  S
Cd124       O130   2.499       .  S
Cd124       O129   2.441   1_655  S
Cd124       O125   2.527   1_655  S
Cd124       O128   2.406       .  S
Cd124       O126   2.350   1_655  S
C127        O131   1.271       .  A
C127        C284   1.461       .  S
O132        C135   1.273       .  A
O132       Cd137   2.519   1_554  S
C133        C172   1.549       .  S
C133        O142   1.270       .  A
C133        O138   1.265       .  A
O134        C140   1.265       .  A
O134       Cd137   2.455       .  S
C135        O143   1.255   1_554  A
C135        C216   1.464       .  S
C136        O141   1.268       .  A
C136        O139   1.261       .  A
Cd137       O144   2.448       .  S
Cd137       O143   2.415       .  S
Cd137       O142   2.518       .  S
Cd137       O138   2.509       .  S
Cd137       O141   2.424       .  S
Cd137       O139   2.345       .  S
C140        O144   1.272       .  A
C140        C593   1.466       .  S
O145        C148   1.274       .  A
O145       Cd150   2.519   1_655  S
C146        C172   1.550       .  S
C146        O155   1.271       .  A
C146        O151   1.262       .  A
O147        C153   1.267       .  A
O147       Cd150   2.381       .  S
C148        O156   1.255   1_655  A
C148        C302   1.466       .  S
C149        O154   1.265       .  A
C149        O152   1.271       .  A
C149        C606   1.460       .  S
Cd150       O157   2.383       .  S
Cd150       O156   2.415       .  S
Cd150       O155   2.553       .  S
Cd150       O151   2.447       .  S
Cd150       O154   2.448       .  S
Cd150       O152   2.423       .  S
C153        O157   1.266       .  A
C153        C343   1.437       .  S
O158        C161   1.273       .  A
O158       Cd163   2.581       .  S
C159        O168   1.254       .  A
C159        O164   1.272       .  A
C159        C581   1.460       .  S
O160        C166   1.269       .  A
O160       Cd163   2.395       .  S
C161        C171   1.544       .  S
C161        O169   1.262       .  A
C162        O167   1.261       .  A
C162        O165   1.271       .  A
C162        C174   1.465       .  S
Cd163       O170   2.359   1_554  S
Cd163       O169   2.392       .  S
Cd163       O168   2.400   1_554  S
Cd163       O164   2.514   1_554  S
Cd163       O167   2.455       .  S
Cd163       O165   2.462       .  S
C166        O170   1.267   1_554  A
C166        C464   1.436       .  S
C171        C753   1.620       .  S
C171        C933   1.610       .  S
C172        C750   1.597       .  S
C172        C803   1.595       .  S
O173        C176   1.267       .  A
O173       Cd178   2.513       .  S
C174        O183   1.256       .  A
C174        O179   1.273       .  A
O175        C181   1.266       .  A
O175       Cd178   2.464       .  S
C176        C226   1.539       .  S
C176        O184   1.271       .  A
C177        O182   1.266       .  A
C177        O180   1.263       .  A
C177        C285   1.439       .  S
Cd178       O185   2.450       .  S
Cd178       O184   2.488       .  S
Cd178       O183   2.426       .  S
Cd178       O179   2.510       .  S
Cd178       O182   2.408       .  S
Cd178       O180   2.381       .  S
C181        O185   1.271       .  A
C181        C539   1.468       .  S
O186        C189   1.265       .  A
O186       Cd191   2.436       .  S
C187        O196   1.257       .  A
C187        O192   1.272       .  A
C187        C460   1.457       .  S
O188        C194   1.268       .  A
O188       Cd191   2.418       .  S
C189        C225   1.531       .  S
C189        O197   1.270       .  A
C190        O195   1.269       .  A
C190        O193   1.266       .  A
Cd191       O198   2.353       .  S
Cd191       O197   2.531       .  S
Cd191       O196   2.410       .  S
Cd191       O192   2.488       .  S
Cd191       O195   2.466       .  S
Cd191       O193   2.392       .  S
C194        O198   1.264       .  A
C194        C248   1.439       .  S
O199        C202   1.271       .  A
O199       Cd204   2.532       .  S
C200        C226   1.533       .  S
C200        O209   1.262       .  A
C200        O205   1.274       .  A
O201        C207   1.262       .  A
O201       Cd204   2.434       .  S
C202        O210   1.254       .  A
C203        O208   1.267       .  A
C203        O206   1.266       .  A
C203        C393   1.433       .  S
Cd204       O211   2.445       .  S
Cd204       O210   2.417       .  S
Cd204       O209   2.427       .  S
Cd204       O205   2.543       .  S
Cd204       O208   2.386       .  S
Cd204       O206   2.359       .  S
C207        O211   1.272       .  A
C207        C483   1.459       .  S
O212        C215   1.272       .  A
O212       Cd217   2.490       .  S
C213        C225   1.549       .  S
C213        O222   1.260       .  A
C213        O218   1.271       .  A
O214        C220   1.271       .  A
O214       Cd217   2.414       .  S
C215        O223   1.253       .  A
C215        C518   1.451       .  S
C216        O221   1.263       .  A
C216        O219   1.270       .  A
Cd217       O224   2.364       .  S
Cd217       O223   2.384       .  S
Cd217       O222   2.372       .  S
Cd217       O218   2.591       .  S
Cd217       O221   2.461       .  S
Cd217       O219   2.442       .  S
C220        O224   1.266       .  A
C220        C622   1.442       .  S
C225        C740   1.596       .  S
C225        C953   1.593       .  S
C226        C743   1.610       .  S
C226        C993   1.624       .  S
O227        C230   1.273       .  A
O227       Cd232   2.520       .  S
C228        C280   1.555       .  S
C228        O237   1.260       .  A
C228        O233   1.275       .  A
O229        C235   1.269       .  A
O229       Cd232   2.422       .  S
C230        O238   1.258       .  A
C231        O236   1.267       .  A
C231        O234   1.266       .  A
C231        C472   1.464       .  S
Cd232       O239   2.360       .  S
Cd232       O238   2.447       .  S
Cd232       O237   2.425       .  S
Cd232       O233   2.597       .  S
Cd232       O236   2.488       .  S
Cd232       O234   2.406       .  S
C235        O239   1.266       .  A
C235        C572   1.442       .  S
O240        C243   1.271       .  A
O240       Cd245   2.496       .  S
C241        C279   1.557       .  S
C241        O250   1.272       .  A
C241        O246   1.260       .  A
O242        C248   1.267       .  A
O242       Cd245   2.417       .  S
C243        O251   1.253       .  A
C243        C451   1.454       .  S
C244        O249   1.264       .  A
C244        O247   1.271       .  A
Cd245       O252   2.362       .  S
Cd245       O251   2.399       .  S
Cd245       O250   2.570       .  S
Cd245       O246   2.414       .  S
Cd245       O249   2.437       .  S
Cd245       O247   2.429       .  S
C248        O252   1.265       .  A
O253        C256   1.270       .  A
O253       Cd258   2.621       .  S
C254        O263   1.266       .  A
C254        O259   1.267       .  A
O255        C261   1.265       .  A
O255       Cd258   2.428       .  S
C256        C280   1.550       .  S
C256        O264   1.267       .  A
C257        O262   1.262       .  A
C257        O260   1.272       .  A
C257        C375   1.462       .  S
Cd258       O265   2.396       .  S
Cd258       O264   2.467       .  S
Cd258       O263   2.440       .  S
Cd258       O259   2.483       .  S
Cd258       O262   2.456       .  S
Cd258       O260   2.445       .  S
C261        O265   1.264       .  A
C261        C311   1.438       .  S
O266        C269   1.269       .  A
O266       Cd271   2.459       .  S
C267        O276   1.256       .  A
C267        O272   1.270       .  A
C267        C356   1.456       .  S
O268        C274   1.266       .  A
O268       Cd271   2.404       .  S
C269        C279   1.533       .  S
C269        O277   1.264       .  A
C270        O275   1.266       .  A
C270        O273   1.271       .  A
Cd271       O278   2.368       .  S
Cd271       O277   2.464       .  S
Cd271       O276   2.408       .  S
Cd271       O272   2.490       .  S
Cd271       O275   2.446       .  S
Cd271       O273   2.414       .  S
C274        O278   1.262       .  A
C274        C652   1.435       .  S
C279        C733   1.593       .  S
C279        C963   1.595       .  S
C280        C730   1.623       .  S
C280       C1033   1.613       .  S
O281        C284   1.271       .  A
O281       Cd286   2.488       .  S
C282        C333   1.530       .  S
C282        O291   1.265       .  A
C282        O287   1.270       .  A
O283        C289   1.262       .  A
O283       Cd286   2.453       .  S
C284        O292   1.260       .  A
C285        O290   1.264       .  A
C285        O288   1.265       .  A
Cd286       O293   2.445       .  S
Cd286       O292   2.420       .  S
Cd286       O291   2.396       .  S
Cd286       O287   2.530       .  S
Cd286       O290   2.405       .  S
Cd286       O288   2.395       .  S
C289        O293   1.270       .  A
C289        C498   1.462       .  S
O294        C297   1.272       .  A
O294       Cd299   2.495       .  S
C295        C334   1.542       .  S
C295        O304   1.268       .  A
C295        O300   1.272       .  A
O296        C302   1.261       .  A
O296       Cd299   2.457       .  S
C297        O305   1.258       .  A
C297        C531   1.461       .  S
C298        O303   1.265       .  A
C298        O301   1.265       .  A
C298        C585   1.437       .  S
Cd299       O306   2.461       .  S
Cd299       O305   2.418       .  S
Cd299       O304   2.420       .  S
Cd299       O300   2.556       .  S
Cd299       O303   2.395       .  S
Cd299       O301   2.381       .  S
C302        O306   1.271       .  A
O307        C310   1.271       .  A
O307       Cd312   2.574       .  S
C308        O317   1.265       .  A
C308        O313   1.267       .  A
O309        C315   1.262       .  A
O309       Cd312   2.445       .  S
C310        C334   1.543       .  S
C310        O318   1.265       .  A
C311        O316   1.265       .  A
C311        O314   1.264       .  A
Cd312       O319   2.440       .  S
Cd312       O318   2.445       .  S
Cd312       O317   2.437       .  S
Cd312       O313   2.488       .  S
Cd312       O316   2.405       .  S
Cd312       O314   2.377       .  S
C315        O319   1.271       .  A
C315        C336   1.459       .  S
O320        C323   1.271       .  A
O320       Cd325   2.486       .  S
C321        C333   1.537       .  S
C321        O330   1.269       .  A
C321        O326   1.263       .  A
O322        C328   1.265       .  A
O322       Cd325   2.399       .  S
C323        O331   1.256       .  A
C323        C369   1.454       .  S
C324        O329   1.267       .  A
C324        O327   1.271       .  A
Cd325       O332   2.387       .  S
Cd325       O331   2.402       .  S
Cd325       O330   2.499       .  S
Cd325       O326   2.473       .  S
Cd325       O329   2.440       .  S
Cd325       O327   2.403       .  S
C328        O332   1.263       .  A
C328        C419   1.435       .  S
C333        C720   1.576       .  S
C333       C1013   1.600       .  S
C334        C723   1.597       .  S
C334       C1053   1.599       .  S
O335        C338   1.272       .  A
O335       Cd340   2.554       .  S
C336        O345   1.257   1_655  A
C336        O341   1.273       .  A
O337        C343   1.263       .  A
O337       Cd340   2.378       .  S
C338        C387   1.545       .  S
C338        O346   1.258       .  A
C339        O344   1.260       .  A
C339        O342   1.271       .  A
C339        C647   1.457       .  S
Cd340       O347   2.393       .  S
Cd340       O346   2.396       .  S
Cd340       O345   2.402       .  S
Cd340       O341   2.490   1_455  S
Cd340       O344   2.433       .  S
Cd340       O342   2.445       .  S
C343        O347   1.266       .  A
O348        C351   1.263       .  A
O348       Cd353   2.440       .  S
C349        O358   1.256       .  A
C349        O354   1.270       .  A
C349        C432   1.457       .  S
O350        C356   1.265       .  A
O350       Cd353   2.436       .  S
C351        C387   1.536       .  S
C351        O359   1.268       .  A
C352        O357   1.265       .  A
C352        O355   1.263   1_545  A
Cd353       O360   2.419       .  S
Cd353       O359   2.522       .  S
Cd353       O358   2.407   1_545  S
Cd353       O354   2.501   1_545  S
Cd353       O357   2.433       .  S
Cd353       O355   2.404   1_545  S
C356        O360   1.271       .  A
O361        C364   1.273       .  A
O361       Cd366   2.510   1_455  S
C362        C388   1.544       .  S
C362        O371   1.269       .  A
C362        O367   1.266       .  A
O363        C369   1.264       .  A
O363       Cd366   2.424       .  S
C364        O372   1.256       .  A
C364        C635   1.466       .  S
C365        O370   1.265       .  A
C365        O368   1.263   1_655  A
C365        C527   1.436       .  S
Cd366       O373   2.421       .  S
Cd366       O372   2.433   1_655  S
Cd366       O371   2.493       .  S
Cd366       O367   2.493       .  S
Cd366       O370   2.402       .  S
Cd366       O368   2.365   1_655  S
C369        O373   1.272       .  A
O374        C377   1.262       .  A
O374       Cd379   2.476       .  S
C375        O384   1.255   1_545  A
C375        O380   1.273       .  A
O376        C382   1.265       .  A
O376       Cd379   2.490       .  S
C377        C388   1.546       .  S
C377        O385   1.272       .  A
C378        O383   1.270       .  A
C378        O381   1.267       .  A
C378        C473   1.438       .  S
Cd379       O386   2.444       .  S
Cd379       O385   2.558       .  S
Cd379       O384   2.408       .  S
Cd379       O380   2.516   1_565  S
Cd379       O383   2.411       .  S
Cd379       O381   2.344       .  S
C382        O386   1.269       .  A
C382        C418   1.472       .  S
C387        C710   1.607       .  S
C387        C790   1.595       .  S
C388        C713   1.603       .  S
C388        C873   1.599       .  S
O389        C392   1.274       .  A
O389       Cd394   2.557       .  S
C390        O399   1.255       .  A
C390        O395   1.274       .  A
O391        C397   1.264       .  A
O391       Cd394   2.441       .  S
C392        C441   1.540       .  S
C392        O400   1.262       .  A
C393        O398   1.269       .  A
C393        O396   1.266       .  A
Cd394       O401   2.429       .  S
Cd394       O400   2.433       .  S
Cd394       O399   2.420       .  S
Cd394       O395   2.525       .  S
Cd394       O398   2.382       .  S
Cd394       O396   2.353       .  S
C397        O401   1.271       .  A
C397        C446   1.459       .  S
O402        C405   1.272       .  A
O402       Cd407   2.513       .  S
C403        C442   1.541       .  S
C403        O412   1.271       .  A
C403        O408   1.262       .  A
O404        C410   1.270       .  A
O404       Cd407   2.398       .  S
C405        O413   1.255       .  A
C405        C477   1.461       .  S
C406        O411   1.263       .  A
C406        O409   1.269       .  A
Cd407       O414   2.379       .  S
Cd407       O413   2.401       .  S
Cd407       O412   2.576       .  S
Cd407       O408   2.399       .  S
Cd407       O411   2.467       .  S
Cd407       O409   2.442       .  S
C410        O414   1.266       .  A
C410        C559   1.442       .  S
O415        C418   1.272       .  A
O415       Cd420   2.549       .  S
C416        C441   1.540       .  S
C416        O425   1.274       .  A
C416        O421   1.263       .  A
O417        C423   1.262       .  A
O417       Cd420   2.435       .  S
C418        O426   1.255       .  A
C419        O424   1.267       .  A
C419        O422   1.266       .  A
Cd420       O427   2.448       .  S
Cd420       O426   2.424       .  S
Cd420       O425   2.560       .  S
Cd420       O421   2.436       .  S
Cd420       O424   2.384       .  S
Cd420       O422   2.370       .  S
C423        O427   1.271       .  A
O428        C431   1.270       .  A
O428       Cd433   2.519       .  S
C429        O438   1.255       .  A
C429        O434   1.271       .  A
O430        C436   1.268       .  A
O430       Cd433   2.429       .  S
C431        C442   1.536       .  S
C431        O439   1.265       .  A
C432        O437   1.266       .  A
C432        O435   1.270       .  A
Cd433       O440   2.371       .  S
Cd433       O439   2.451       .  S
Cd433       O438   2.416       .  S
Cd433       O434   2.488       .  S
Cd433       O437   2.445       .  S
Cd433       O435   2.413       .  S
C436        O440   1.263       .  A
C436        C639   1.444       .  S
C441        C703   1.605       .  S
C441       C1003   1.615       .  S
C442        C700   1.617       .  S
C442       C1093   1.603       .  S
O443        C446   1.273       .  A
O443       Cd448   2.491   1_565  S
C444        C495   1.544       .  S
C444        O453   1.267       .  A
C444        O449   1.270       .  A
O445        C451   1.261       .  A
O445       Cd448   2.426       .  S
C446        O454   1.258       .  A
C447        O452   1.264       .  A
C447        O450   1.263   1_545  A
Cd448       O455   2.432       .  S
Cd448       O454   2.408   1_545  S
Cd448       O453   2.423       .  S
Cd448       O449   2.540       .  S
Cd448       O452   2.388       .  S
Cd448       O450   2.358   1_545  S
C451        O455   1.271       .  A
O456        C459   1.269       .  A
O456       Cd461   2.503   1_556  S
C457        C495   1.523       .  S
C457        O466   1.265       .  A
C457        O462   1.270       .  A
O458        C464   1.264       .  A
O458       Cd461   2.415       .  S
C459        O467   1.258       .  A
C459        C568   1.461       .  S
C460        O465   1.264       .  A
C460        O463   1.271       .  A
Cd461       O468   2.376   1_554  S
Cd461       O467   2.416   1_554  S
Cd461       O466   2.397       .  S
Cd461       O462   2.526       .  S
Cd461       O465   2.440       .  S
Cd461       O463   2.433       .  S
C464        O468   1.262   1_554  A
O469        C472   1.267       .  A
O469       Cd474   2.508   1_545  S
C470        C496   1.542       .  S
C470        O479   1.265       .  A
C470        O475   1.272       .  A
O471        C477   1.264       .  A
O471       Cd474   2.461       .  S
C472        O480   1.262   1_545  A
C473        O478   1.266       .  A
C473        O476   1.262       .  A
Cd474       O481   2.432       .  S
Cd474       O480   2.414       .  S
Cd474       O479   2.434       .  S
Cd474       O475   2.562       .  S
Cd474       O478   2.434       .  S
Cd474       O476   2.364       .  S
C477        O481   1.271       .  A
O482        C485   1.270       .  A
O482       Cd487   2.534       .  S
C483        O492   1.258   1_554  A
C483        O488   1.273       .  A
O484        C490   1.260       .  A
O484       Cd487   2.460       .  S
C485        C496   1.542       .  S
C485        O493   1.266       .  A
C486        O491   1.265       .  A
C486        O489   1.265       .  A
C486        C540   1.426       .  S
Cd487       O494   2.476       .  S
Cd487       O493   2.432       .  S
Cd487       O492   2.417       .  S
Cd487       O488   2.480   1_556  S
Cd487       O491   2.343       .  S
Cd487       O489   2.365       .  S
C490        O494   1.272       .  A
C490        C552   1.468       .  S
C495        C693   1.575       .  S
C495        C910   1.596       .  S
C496        C690   1.587       .  S
C496        C893   1.593       .  S
O497        C500   1.273       .  A
O497       Cd502   2.518       .  S
C498        O507   1.255   1_655  A
C498        O503   1.270       .  A
O499        C505   1.263       .  A
O499       Cd502   2.437       .  S
C500        C549   1.540       .  S
C500        O508   1.263       .  A
C501        O506   1.268       .  A
C501        O504   1.266       .  A
Cd502       O509   2.434       .  S
Cd502       O508   2.456       .  S
Cd502       O507   2.415       .  S
Cd502       O503   2.513   1_455  S
Cd502       O506   2.386       .  S
Cd502       O504   2.363       .  S
C505        O509   1.269       .  A
C505        C621   1.457       .  S
O510        C513   1.268       .  A
O510       Cd515   2.470   1_556  S
C511        C549   1.544       .  S
C511        O520   1.268       .  A
C511        O516   1.271   1_554  A
O512        C518   1.262       .  A
O512       Cd515   2.428       .  S
C513        O521   1.265       .  A
C513        C594   1.464       .  S
C514        O519   1.266       .  A
C514        O517   1.263   1_554  A
Cd515       O522   2.415       .  S
Cd515       O521   2.433   1_554  S
Cd515       O520   2.465       .  S
Cd515       O516   2.599   1_554  S
Cd515       O519   2.435       .  S
Cd515       O517   2.379   1_554  S
C518        O522   1.272       .  A
O523        C526   1.273       .  A
O523       Cd528   2.545       .  S
C524        O533   1.256       .  A
C524        O529   1.271       .  A
C524        C609   1.464       .  S
O525        C531   1.262       .  A
O525       Cd528   2.445       .  S
C526        C550   1.537       .  S
C526        O534   1.262       .  A
C527        O532   1.268       .  A
C527        O530   1.266       .  A
Cd528       O535   2.442       .  S
Cd528       O534   2.419       .  S
Cd528       O533   2.434   1_655  S
Cd528       O529   2.502   1_655  S
Cd528       O532   2.396       .  S
Cd528       O530   2.360       .  S
C531        O535   1.270       .  A
O536        C539   1.273       .  A
O536       Cd541   2.511   1_554  S
C537        C550   1.544       .  S
C537        O546   1.267       .  A
C537        O542   1.269       .  A
O538        C544   1.262       .  A
O538       Cd541   2.426       .  S
C539        O547   1.259   1_554  A
C540        O545   1.262       .  A
C540        O543   1.263       .  A
Cd541       O548   2.439       .  S
Cd541       O547   2.429       .  S
Cd541       O546   2.453       .  S
Cd541       O542   2.500       .  S
Cd541       O545   2.356       .  S
Cd541       O543   2.374       .  S
C544        O548   1.273       .  A
C544        C580   1.457       .  S
C549        C680   1.601       .  S
C549        C833   1.606       .  S
C550        C683   1.594       .  S
C550        C883   1.619       .  S
O551        C554   1.266       .  A
O551       Cd556   2.509       .  S
C552        O561   1.254       .  A
C552        O557   1.272       .  A
O553        C559   1.263       .  A
O553       Cd556   2.402       .  S
C554        C603   1.550       .  S
C554        O562   1.269       .  A
C555        O560   1.264       .  A
C555        O558   1.272       .  A
Cd556       O563   2.406       .  S
Cd556       O562   2.529       .  S
Cd556       O561   2.431       .  S
Cd556       O557   2.526       .  S
Cd556       O560   2.438       .  S
Cd556       O558   2.419       .  S
C559        O563   1.265       .  A
O564        C567   1.266       .  A
O564       Cd569   2.499       .  S
C565        O574   1.258       .  A
C565        O570   1.272       .  A
O566        C572   1.266       .  A
O566       Cd569   2.427       .  S
C567        C604   1.530       .  S
C567        O575   1.269       .  A
C568        O573   1.266       .  A
C568        O571   1.269       .  A
Cd569       O576   2.367       .  S
Cd569       O575   2.480       .  S
Cd569       O574   2.418       .  S
Cd569       O570   2.490       .  S
Cd569       O573   2.460       .  S
Cd569       O571   2.419       .  S
C572        O576   1.264       .  A
O577        C580   1.271       .  A
O577       Cd582   2.491       .  S
C578        C604   1.536       .  S
C578        O587   1.260       .  A
C578        O583   1.272       .  A
O579        C585   1.269       .  A
O579       Cd582   2.395       .  S
C580        O588   1.255       .  A
C581        O586   1.262       .  A
C581        O584   1.270       .  A
Cd582       O589   2.373       .  S
Cd582       O588   2.407       .  S
Cd582       O587   2.376       .  S
Cd582       O583   2.567       .  S
Cd582       O586   2.454       .  S
Cd582       O584   2.431       .  S
C585        O589   1.267       .  A
O590        C593   1.275       .  A
O590       Cd595   2.505       .  S
C591        C603   1.553       .  S
C591        O600   1.266       .  A
C591        O596   1.270       .  A
O592        C598   1.263       .  A
O592       Cd595   2.396       .  S
C593        O601   1.259       .  A
C594        O599   1.265       .  A
C594        O597   1.270       .  A
Cd595       O602   2.369       .  S
Cd595       O601   2.427       .  S
Cd595       O600   2.481       .  S
Cd595       O596   2.552       .  S
Cd595       O599   2.453       .  S
Cd595       O597   2.439       .  S
C598        O602   1.263       .  A
C598        C613   1.434       .  S
C603        C670   1.600       .  S
C603       C1083   1.598       .  S
C604        C673   1.603       .  S
C604       C1043   1.590       .  S
O605        C608   1.271       .  A
O605       Cd610   2.600       .  S
C606        O615   1.258       .  A
C606        O611   1.273       .  A
O607        C613   1.264       .  A
O607       Cd610   2.421       .  S
C608        C658   1.545       .  S
C608        O616   1.268       .  A
C609        O614   1.261       .  A
C609        O612   1.272       .  A
Cd610       O617   2.374       .  S
Cd610       O616   2.419       .  S
Cd610       O615   2.405       .  S
Cd610       O611   2.497       .  S
Cd610       O614   2.441       .  S
Cd610       O612   2.463       .  S
C613        O617   1.263       .  A
O618        C621   1.271       .  A
O618       Cd623   2.476       .  S
C619        C657   1.539       .  S
C619        O628   1.265       .  A
C619        O624   1.269       .  A
O620        C626   1.261       .  A
O620       Cd623   2.468       .  S
C621        O629   1.258       .  A
C622        O627   1.264       .  A
C622        O625   1.264       .  A
Cd623       O630   2.478       .  S
Cd623       O629   2.415       .  S
Cd623       O628   2.392       .  S
Cd623       O624   2.567       .  S
Cd623       O627   2.419       .  S
Cd623       O625   2.387       .  S
C626        O630   1.271       .  A
O631        C634   1.273       .  A
O631       Cd636   2.509       .  S
C632        C658   1.563       .  S
C632        O641   1.269       .  A
C632        O637   1.271       .  A
O633        C639   1.263       .  A
O633       Cd636   2.421       .  S
C634        O642   1.257       .  A
C635        O640   1.261       .  A
C635        O638   1.273       .  A
Cd636       O643   2.385       .  S
Cd636       O642   2.432       .  S
Cd636       O641   2.432       .  S
Cd636       O637   2.597       .  S
Cd636       O640   2.446       .  S
Cd636       O638   2.471       .  S
C639        O643   1.265       .  A
O644        C647   1.270       .  A
O644       Cd649   2.498       .  S
C645        C657   1.543       .  S
C645        O654   1.271       .  A
C645        O650   1.262       .  A
O646        C652   1.264       .  A
O646       Cd649   2.401       .  S
C647        O655   1.254       .  A
C648        O653   1.263       .  A
C648        O651   1.272       .  A
Cd649       O656   2.384       .  S
Cd649       O655   2.411       .  S
Cd649       O654   2.517       .  S
Cd649       O650   2.460       .  S
Cd649       O653   2.439       .  S
Cd649       O651   2.431       .  S
C652        O656   1.264       .  A
C657        C660   1.599       .  S
C657        C973   1.600       .  S
C658        C663   1.618       .  S
C658       C1073   1.595       .  S
C659        C660   1.420       .  A
C659        C664   1.425       .  A
C659       Br666   1.952       .  S
C660        C661   1.432       .  A
C661        C662   1.440       .  A
C661       Br668   1.935       .  S
C662        C663   1.435       .  A
C662       Br667   1.937       .  S
C663        C664   1.445       .  A
C664       Br665   1.918       .  S
C669        C670   1.435       .  A
C669        C674   1.433       .  A
C669       Br676   1.943       .  S
C670        C671   1.433       .  A
C671        C672   1.428       .  A
C671       Br678   1.937       .  S
C672        C673   1.430       .  A
C672       Br677   1.934       .  S
C673        C674   1.433       .  A
C674       Br675   1.939       .  S
C679        C680   1.433   1_556  A
C679        C684   1.401       .  A
C679       Br686   1.909       .  S
C680        C681   1.453       .  A
C681        C682   1.422   1_454  A
C681       Br688   1.934   1_455  S
C682        C683   1.412       .  A
C682       Br687   1.937       .  S
C683        C684   1.402   1_655  A
C684       Br685   1.936       .  S
C689        C690   1.450       .  A
C689        C694   1.442       .  A
C689       Br696   1.936       .  S
C690        C691   1.438       .  A
C691        C692   1.384   1_565  A
C691       Br698   1.913       .  S
C692        C693   1.392   1_556  A
C692       Br697   1.929       .  S
C693        C694   1.425   1_544  A
C694       Br695   1.932   1_556  S
C699        C700   1.433       .  A
C699        C704   1.419       .  A
C699       Br706   1.937       .  S
C700        C701   1.442       .  A
C701        C702   1.440       .  A
C701       Br708   1.937       .  S
C702        C703   1.439       .  A
C702       Br707   1.945       .  S
C703        C704   1.435       .  A
C704       Br705   1.945       .  S
C709        C710   1.433   1_565  A
C709        C714   1.434       .  A
C709       Br716   1.941       .  S
C710        C711   1.431       .  A
C711        C712   1.431   1_445  A
C711       Br718   1.940       .  S
C712        C713   1.432       .  A
C712       Br717   1.935       .  S
C713        C714   1.435   1_655  A
C714       Br715   1.942       .  S
C719        C720   1.394       .  A
C719        C724   1.387       .  A
C719       Br726   1.917       .  S
C720        C721   1.427       .  A
C721        C722   1.444       .  A
C721       Br728   1.929       .  S
C722        C723   1.442       .  A
C722       Br727   1.933       .  S
C723        C724   1.429       .  A
C724       Br725   1.913       .  S
C729        C730   1.437       .  A
C729        C734   1.427       .  A
C729       Br736   1.909       .  S
C730        C731   1.448       .  A
C731        C732   1.430       .  A
C731       Br738   1.941       .  S
C732        C733   1.428       .  A
C732       Br737   1.942       .  S
C733        C734   1.423       .  A
C734       Br735   1.946       .  S
C739        C740   1.434       .  A
C739        C744   1.426       .  A
C739       Br746   1.939       .  S
C740        C741   1.443       .  A
C741        C742   1.421       .  A
C741       Br748   1.940       .  S
C742        C743   1.430       .  A
C742       Br747   1.946       .  S
C743        C744   1.428       .  A
C744       Br745   1.945       .  S
C749        C750   1.428       .  A
C749        C754   1.424   1_455  A
C749       Br756   1.935   1_455  S
C750        C751   1.429       .  A
C751        C752   1.434   1_556  A
C751       Br758   1.943       .  S
C752        C753   1.451   1_455  A
C752       Br757   1.940       .  S
C753        C754   1.434   1_554  A
C754       Br755   1.927       .  S
C759        C760   1.439   1_556  A
C759        C764   1.445       .  A
C759       Br766   1.932   1_556  S
C760        C761   1.413   1_554  A
C761        C762   1.399       .  A
C761       Br768   1.922       .  S
C762        C763   1.421   1_565  A
C762       Br767   1.911   1_565  S
C763        C764   1.433   1_545  A
C764       Br765   1.932   1_565  S
C769        C770   1.447   1_565  A
C769        C774   1.438   1_655  A
C769       Br776   1.937       .  S
C770        C771   1.433   1_655  A
C771        C772   1.407   1_545  A
C771       Br778   1.931       .  S
C772        C773   1.414       .  A
C772       Br777   1.932   1_565  S
C773        C774   1.423       .  A
C774       Br775   1.938       .  S
C779        C780   1.423       .  A
C779        C784   1.391       .  A
C779       Br786   1.919   1_556  S
C780        C781   1.430       .  A
C781        C782   1.433       .  A
C781       Br788   1.954   1_455  S
C782        C783   1.446       .  A
C782       Br787   1.922       .  S
C783        C784   1.427       .  A
C784       Br785   1.916   1_545  S
C789        C790   1.439       .  A
C789        C794   1.428       .  A
C789       Br796   1.944       .  S
C790        C791   1.405       .  A
C791        C792   1.419       .  A
C791       Br798   1.935   1_545  S
C792        C793   1.452       .  A
C792       Br797   1.933   1_545  S
C793        C794   1.436       .  A
C794       Br795   1.940       .  S
C799        C800   1.441       .  A
C799        C804   1.403       .  A
C799       Br806   1.928       .  S
C800        C801   1.459       .  A
C801        C802   1.440       .  A
C801       Br808   1.934       .  S
C802        C803   1.424       .  A
C802       Br807   1.935       .  S
C803        C804   1.416       .  A
C804       Br805   1.932       .  S
C809        C810   1.454       .  A
C809        C814   1.425       .  A
C809       Br816   1.930       .  S
C810        C811   1.436       .  A
C811        C812   1.414       .  A
C811       Br818   1.937       .  S
C812        C813   1.429       .  A
C812       Br817   1.939       .  S
C813        C814   1.418       .  A
C814       Br815   1.952   1_545  S
C819        C820   1.433       .  A
C819        C824   1.409       .  A
C819       Br826   1.928       .  S
C820        C821   1.457       .  A
C821        C822   1.419   1_554  A
C821       Br828   1.947   1_554  S
C822        C823   1.423   1_556  A
C822       Br827   1.951       .  S
C823        C824   1.434       .  A
C824       Br825   1.937   1_565  S
C829        C830   1.442       .  A
C829        C834   1.427       .  A
C829       Br836   1.933       .  S
C830        C831   1.434       .  A
C831        C832   1.415       .  A
C831       Br838   1.978       .  S
C832        C833   1.442       .  A
C832       Br837   1.917       .  S
C833        C834   1.427       .  A
C834       Br835   1.939       .  S
C839        C840   1.429       .  A
C839        C844   1.407       .  A
C839       Br846   1.920       .  S
C840        C841   1.438       .  A
C841        C842   1.426       .  A
C841       Br848   1.929       .  S
C842        C843   1.421       .  A
C842       Br847   1.916       .  S
C843        C844   1.425       .  A
C844       Br845   1.923       .  S
C849        C850   1.442       .  A
C849        C854   1.433       .  A
C849       Br856   1.948       .  S
C850        C851   1.442       .  A
C851        C852   1.433       .  A
C851       Br858   1.922       .  S
C852        C853   1.424       .  A
C852       Br857   1.942       .  S
C853        C854   1.438       .  A
C854       Br855   1.934       .  S
C859        C860   1.439       .  A
C859        C864   1.408       .  A
C859       Br866   1.910       .  S
C860        C861   1.446       .  A
C861        C862   1.434       .  A
C861       Br868   1.927       .  S
C862        C863   1.447       .  A
C862       Br867   1.916   1_556  S
C863        C864   1.432       .  A
C864       Br865   1.914       .  S
C869        C870   1.439       .  A
C869        C874   1.428       .  A
C869       Br876   1.940       .  S
C870        C871   1.442       .  A
C871        C872   1.429       .  A
C871       Br878   1.949   1_655  S
C872        C873   1.418       .  A
C872       Br877   1.919   1_655  S
C873        C874   1.435       .  A
C874       Br875   1.944       .  S
C879        C880   1.457       .  A
C879        C884   1.424       .  A
C879       Br886   1.940       .  S
C880        C881   1.429       .  A
C881        C882   1.426       .  A
C881       Br888   1.918       .  S
C882        C883   1.430       .  A
C882       Br887   1.924       .  S
C883        C884   1.426       .  A
C884       Br885   1.928   1_655  S
C889        C890   1.471       .  A
C889        C894   1.431       .  A
C889       Br896   1.959       .  S
C890        C891   1.453       .  A
C891        C892   1.432       .  A
C891       Br898   1.938       .  S
C892        C893   1.419       .  A
C892       Br897   1.944       .  S
C893        C894   1.421       .  A
C894       Br895   1.963       .  S
C899        C900   1.432       .  A
C899        C904   1.417       .  A
C899       Br906   1.928       .  S
C900        C901   1.450       .  A
C901        C902   1.396   1_545  A
C901       Br908   1.945   1_545  S
C902        C903   1.412   1_565  A
C902       Br907   1.913       .  S
C903        C904   1.439       .  A
C904       Br905   1.940   1_655  S
C909        C910   1.416       .  A
C909        C914   1.407       .  A
C909       Br916   1.925   1_545  S
C910        C911   1.431       .  A
C911        C912   1.417       .  A
C911       Br918   1.923   1_554  S
C912        C913   1.443       .  A
C912       Br917   1.943   1_554  S
C913        C914   1.432       .  A
C914       Br915   1.925       .  S
C919        C920   1.462       .  A
C919        C924   1.435       .  A
C919       Br926   1.917   1_545  S
C920        C921   1.448       .  A
C921        C922   1.416       .  A
C921       Br928   1.922       .  S
C922        C923   1.421       .  A
C922       Br927   1.932       .  S
C923        C924   1.420       .  A
C924       Br925   1.946   1_545  S
C929        C930   1.424       .  A
C929        C934   1.403       .  A
C929       Br936   1.926   1_554  S
C930        C931   1.434       .  A
C931        C932   1.450       .  A
C931       Br938   1.919       .  S
C932        C933   1.456       .  A
C932       Br937   1.942       .  S
C933        C934   1.416       .  A
C934       Br935   1.895   1_655  S
C939        C940   1.444       .  A
C939        C944   1.389       .  A
C939       Br946   1.946       .  S
C940        C941   1.448       .  A
C941        C942   1.445       .  A
C941       Br948   1.921       .  S
C942        C943   1.441       .  A
C942       Br947   1.957       .  S
C943        C944   1.429       .  A
C944       Br945   1.943       .  S
C949        C950   1.458       .  A
C949        C954   1.429       .  A
C949       Br956   1.919       .  S
C950        C951   1.440       .  A
C951        C952   1.410       .  A
C951       Br958   1.917       .  S
C952        C953   1.427       .  A
C952       Br957   1.954       .  S
C953        C954   1.420       .  A
C954       Br955   1.942       .  S
C959        C960   1.444       .  A
C959        C964   1.408       .  A
C959       Br966   1.919       .  S
C960        C961   1.451       .  A
C961        C962   1.438       .  A
C961       Br968   1.934       .  S
C962        C963   1.428       .  A
C962       Br967   1.934       .  S
C963        C964   1.412       .  A
C964       Br965   1.944       .  S
C969        C970   1.440       .  A
C969        C974   1.417       .  A
C969       Br976   1.888       .  S
C970        C971   1.464       .  A
C971        C972   1.438       .  A
C971       Br978   1.932       .  S
C972        C973   1.423       .  A
C972       Br977   1.945       .  S
C973        C974   1.409       .  A
C974       Br975   1.937       .  S
C979        C980   1.447       .  A
C979        C984   1.445       .  A
C979       Br986   1.928       .  S
C980        C981   1.427       .  A
C981        C982   1.406       .  A
C981       Br988   1.949       .  S
C982        C983   1.422       .  A
C982       Br987   1.893       .  S
C983        C984   1.458       .  A
C984       Br985   1.968       .  S
C989        C990   1.440       .  A
C989        C994   1.438       .  A
C989       Br996   1.941       .  S
C990        C991   1.447       .  A
C991        C992   1.416       .  A
C991       Br998   1.957       .  S
C992        C993   1.427       .  A
C992       Br997   1.915       .  S
C993        C994   1.448       .  A
C994       Br995   1.954       .  S
C999       C1000   1.438       .  A
C999       C1004   1.420       .  A
C999      Br1006   1.923       .  S
C1000      C1001   1.452       .  A
C1001      C1002   1.422       .  A
C1001     Br1008   1.924       .  S
C1002      C1003   1.424       .  A
C1002     Br1007   1.913       .  S
C1003      C1004   1.439       .  A
C1004     Br1005   1.936       .  S
C1009      C1010   1.449       .  A
C1009      C1014   1.413       .  A
C1009     Br1016   1.924       .  S
C1010      C1011   1.453       .  A
C1011      C1012   1.436       .  A
C1011     Br1018   1.915       .  S
C1012      C1013   1.423       .  A
C1012     Br1017   1.944       .  S
C1013      C1014   1.410       .  A
C1014     Br1015   1.927       .  S
C1019      C1020   1.409       .  A
C1019      C1024   1.421       .  A
C1019     Br1026   1.929       .  S
C1020      C1021   1.413       .  A
C1021      C1022   1.414       .  A
C1021     Br1028   1.924       .  S
C1022      C1023   1.445       .  A
C1022     Br1027   1.936       .  S
C1023      C1024   1.450       .  A
C1024     Br1025   1.938       .  S
C1029      C1030   1.414       .  A
C1029      C1034   1.416       .  A
C1029     Br1036   1.925       .  S
C1030      C1031   1.424       .  A
C1031      C1032   1.417       .  A
C1031     Br1038   1.942       .  S
C1032      C1033   1.442       .  A
C1032     Br1037   1.919       .  S
C1033      C1034   1.428       .  A
C1034     Br1035   1.922       .  S
C1039      C1040   1.436       .  A
C1039      C1044   1.429       .  A
C1039     Br1046   1.912       .  S
C1040      C1041   1.434       .  A
C1041      C1042   1.399       .  A
C1041     Br1048   1.930       .  S
C1042      C1043   1.395       .  A
C1042     Br1047   1.913       .  S
C1043      C1044   1.437       .  A
C1044     Br1045   1.944       .  S
C1049      C1050   1.456       .  A
C1049      C1054   1.435       .  A
C1049     Br1056   1.916       .  S
C1050      C1051   1.459       .  A
C1051      C1052   1.431       .  A
C1051     Br1058   1.935       .  S
C1052      C1053   1.425       .  A
C1052     Br1057   1.951       .  S
C1053      C1054   1.425       .  A
C1054     Br1055   1.962       .  S
C1059      C1060   1.440       .  A
C1059      C1064   1.433       .  A
C1059     Br1066   1.925       .  S
C1060      C1061   1.432       .  A
C1061      C1062   1.401       .  A
C1061     Br1068   1.904       .  S
C1062      C1063   1.418       .  A
C1062     Br1067   1.917       .  S
C1063      C1064   1.434       .  A
C1064     Br1065   1.921       .  S
C1069      C1070   1.438       .  A
C1069      C1074   1.417       .  A
C1069     Br1076   1.942       .  S
C1070      C1071   1.445       .  A
C1071      C1072   1.421       .  A
C1071     Br1078   1.924       .  S
C1072      C1073   1.419       .  A
C1072     Br1077   1.946       .  S
C1073      C1074   1.431       .  A
C1074     Br1075   1.932       .  S
C1079      C1080   1.459       .  A
C1079      C1084   1.439       .  A
C1079     Br1086   1.931       .  S
C1080      C1081   1.444       .  A
C1081      C1082   1.407       .  A
C1081     Br1088   1.929       .  S
C1082      C1083   1.416       .  A
C1082     Br1087   1.928       .  S
C1083      C1084   1.420       .  A
C1084     Br1085   1.931       .  S
C1089      C1090   1.446       .  A
C1089      C1094   1.428       .  A
C1089     Br1096   1.936       .  S
C1090      C1091   1.430       .  A
C1091      C1092   1.427       .  A
C1091     Br1098   1.932       .  S
C1092      C1093   1.443       .  A
C1092     Br1097   1.953       .  S
C1093      C1094   1.418       .  A
C1094     Br1095   1.937       .  S
