geometry optimzed in LAMMPS
_audit_creation_date              2020-11-30 
_audit_creation_method            'lammps2cif' 
_symmetry_space_group_name_H-M    'P1' 
_symmetry_Int_Tables_number       1 
_symmetry_cell_setting            triclinic 
loop_ 
_symmetry_equiv_pos_as_xyz 
  x,y,z 
_cell_length_a                    43.12589656 
_cell_length_b                    43.33394689070799 
_cell_length_c                    27.20142803608522 
_cell_angle_alpha                 92.28731730398285 
_cell_angle_beta                  91.30052545628304 
_cell_angle_gamma                 92.39169350811186 
loop_ 
_atom_site_label 
_atom_site_type_symbol 
_atom_site_fract_x 
_atom_site_fract_y 
_atom_site_fract_z 
_atom_site_charge 
C1          C  0.87942454  0.37750982  0.28620527     0.30500
C2          C  0.87612010  0.37517404  0.05449643     0.30500
C3          C  0.88017470  0.40953171  0.31438328    -0.05700
C4          C  0.85180581  0.36064092  0.31103838    -0.06500
C5          C  0.90749755  0.36255427  0.31193853    -0.06300
C6          C  0.88812487  0.40553831  0.03057038    -0.05700
C7          C  0.84502415  0.37023176  0.02284159    -0.06500
C8          C  0.89591937  0.35050185  0.02748579    -0.06300
C9          C  0.90014503  0.43431192  0.04700321    -0.31700
N10         N  0.90695160  0.45216039  0.34441240     0.14800
C11         C  0.89628188  0.43649221  0.30279546    -0.31700
H12         H  0.90306062  0.44209388  0.26621931     0.16700
C13         C  0.81645732  0.38422123  0.02579282    -0.30700
N14         N  0.79984408  0.38073053  0.98289105     0.13500
C15         C  0.82355384  0.34704805  0.29547718    -0.30700
C16         C  0.89162779  0.31886367  0.03012664    -0.31000
N17         N  0.93168799  0.32028443  0.33370861     0.14000
H18         H  0.87439042  0.30852154  0.05287027     0.16600
C19         C  0.92436978  0.33790173  0.29560390    -0.31000
H20         H  0.92684344  0.33044213  0.25763066     0.16600
H21         H  0.81519820  0.34442438  0.25773757     0.16600
H22         H  0.90323457  0.44212410  0.08503221     0.16700
H23         H  0.81044164  0.40070869  0.05400587     0.16600
C24         C  0.87739804  0.37351479  0.11854646     0.30500
C25         C  0.87813493  0.37666568  0.22481952     0.30500
C26         C  0.90696002  0.38799559  0.14636689    -0.05700
C27         C  0.85080208  0.39054003  0.14609513    -0.06500
C28         C  0.87549093  0.34203921  0.14627757    -0.06300
C29         C  0.90736327  0.38875975  0.19854326    -0.05700
C30         C  0.85310088  0.39491688  0.19870434    -0.06500
C31         C  0.87245834  0.34423798  0.19868724    -0.06300
C32         C  0.93540092  0.40225942  0.21453940    -0.31700
N33         N  0.95180468  0.41091800  0.17499285     0.14800
C34         C  0.93531071  0.40113432  0.13343776    -0.31700
H35         H  0.94294214  0.40420041  0.09636357     0.16700
C36         C  0.82382964  0.40028791  0.21563280    -0.30700
N37         N  0.80284735  0.39520366  0.17835778     0.13500
C38         C  0.81895990  0.38584544  0.13877221    -0.30700
C39         C  0.87494197  0.31518869  0.21678078    -0.31000
N40         N  0.88574020  0.29665028  0.18091150     0.14000
H41         H  0.87322321  0.30893727  0.25473602     0.16600
C42         C  0.88940665  0.31358633  0.14064655    -0.31000
H43         H  0.90547319  0.30694949  0.11306978     0.16600
H44         H  0.80884174  0.36960612  0.11153391     0.16600
H45         H  0.94255169  0.40684061  0.25250737     0.16700
H46         H  0.81809814  0.40336057  0.25390188     0.16600
C47         C  0.49153714  0.87706771  0.04583503     0.30500
C48         C  0.49597061  0.87772386  0.27493234     0.30500
C49         C  0.48738737  0.90840882  0.02108101    -0.05700
C50         C  0.52165805  0.86636241  0.02182058    -0.06500
C51         C  0.46675667  0.85634598  0.01676776    -0.06300
C52         C  0.46792118  0.89093963  0.30434229    -0.05700
C53         C  0.52605455  0.89276201  0.30212070    -0.06500
C54         C  0.49725290  0.84630209  0.30034098    -0.06300
C55         C  0.44896143  0.91385594  0.29125319    -0.31700
N56         N  0.45362714  0.93873422  0.32097509     0.14800
C57         C  0.47214592  0.93453670  0.03580553    -0.31700
H58         H  0.46539715  0.94011557  0.07294149     0.16700
C59         C  0.55720019  0.89317091  0.28991437    -0.30700
N60         N  0.57569083  0.89984042  0.33049940     0.13500
C61         C  0.55188464  0.86610865  0.03910653    -0.30700
C62         C  0.51478844  0.82125139  0.28851829    -0.31000
N63         N  0.43758673  0.81597563  0.98610959     0.14000
H64         H  0.52740559  0.81805580  0.25505364     0.16600
C65         C  0.44697897  0.83205458  0.02822661    -0.31000
H66         H  0.44271713  0.82458297  0.06495557     0.16600
H67         H  0.55924442  0.86820502  0.07738113     0.16600
H68         H  0.42600950  0.90832239  0.27581007     0.16700
H69         H  0.56568946  0.88754526  0.25374844     0.16600
C70         C  0.49299062  0.87914412  0.21125089     0.30500
C71         C  0.49137433  0.87709432  0.10597270     0.30500
C72         C  0.46151093  0.88588206  0.18395091    -0.05700
C73         C  0.51443681  0.90286430  0.18458163    -0.06500
C74         C  0.49937870  0.84792132  0.18297372    -0.06300
C75         C  0.45991784  0.88235350  0.13137830    -0.05700
C76         C  0.51331185  0.90159072  0.13269243    -0.06500
C77         C  0.50177248  0.84778663  0.13068536    -0.06300
C78         C  0.43282314  0.89547807  0.11471706    -0.31700
N79         N  0.42044749  0.91039125  0.15368454     0.14800
C80         C  0.44120226  0.90920398  0.19071612    -0.31700
H81         H  0.44730677  0.93030254  0.21142648     0.16700
C82         C  0.53581091  0.92211329  0.11698940    -0.30700
N83         N  0.55083215  0.93611716  0.15667693     0.13500
C84         C  0.53654736  0.92609825  0.19761255    -0.30700
C85         C  0.49617773  0.81785110  0.11293236    -0.31000
N86         N  0.48597738  0.80029035  0.14952058     0.14000
H87         H  0.49558041  0.81054289  0.07451682     0.16600
C88         C  0.48562173  0.81896459  0.19050246    -0.31000
H89         H  0.47291888  0.81328852  0.22274915     0.16600
H90         H  0.54247713  0.93501932  0.23428047     0.16600
H91         H  0.42521177  0.89743187  0.07686224     0.16700
H92         H  0.54262504  0.92450422  0.07929221     0.16600
Zn93       Zn  0.96573021  0.91270465  0.26116138     1.49700
Zn94       Zn  0.97103750  0.97485323  0.97864564     1.49400
Zn95       Zn  0.90947134  0.96888134  0.27216841     1.49100
Zn96       Zn  0.92104869  0.92109968  0.03532064     1.49500
O97         O  0.94794211  0.94806579  0.30095771    -1.83600
O98         O  0.01368114  0.91980464  0.26147669    -0.74200
O99         O  0.95943910  0.01134862  0.94248864    -0.74100
O100        O  0.89148315  0.93799619  0.21002263    -0.73600
O101        O  0.01171012  0.95856966  0.96377107    -0.74300
O102        O  0.93350011  0.90334480  0.20212738    -0.73900
O103        O  0.91976636  0.01743315  0.28029363    -0.74400
O104        O  0.87356365  0.91638909  0.02930476    -0.73800
O105        O  0.97969305  0.99445992  0.05044548    -0.74600
O106        O  0.87131587  0.96647764  0.31067159    -0.74000
O107        O  0.94977947  0.96226821  0.10020958    -0.75600
O108        O  0.93458814  0.87588351  0.03088173    -0.74400
O109        O  0.96367338  0.87311317  0.29362709    -0.74100
C110        C  0.03175834  0.94141839  0.28105561     0.77600
C111        C  0.94539791  0.03370345  0.28119189     0.78100
C112        C  0.90809693  0.91372141  0.22642098     0.77100
C113        C  0.86121403  0.94210890  0.32983335     0.77500
C114        C  0.96868073  0.98509999  0.09064698     0.78600
C115        C  0.95305255  0.86277850  0.33284230     0.77700
Zn116      Zn  0.89591353  0.96210565  0.09429616     1.49700
Zn117      Zn  0.93728396  0.95241867  0.20215209     1.49400
Zn118      Zn  0.88473901  0.89517536  0.14763025     1.49100
Zn119      Zn  0.95605616  0.91053193  0.10631562     1.49500
O120        O  0.91677029  0.92968606  0.13519724    -1.83600
O121        O  0.89866889  0.00307856  0.12572176    -0.74200
O122        O  0.91154885  0.91504429  0.26849404    -0.74100
O123        O  0.84255467  0.91028686  0.13239424    -0.73600
O124        O  0.92351499  0.99703866  0.19660348    -0.74300
O125        O  0.84805614  0.95556998  0.09669726    -0.73900
O126        O  0.87930657  0.88007088  0.22003050    -0.74400
O127        O  0.94882868  0.86266636  0.11658388    -0.73800
O128        O  0.98441014  0.95831333  0.19741731    -0.74600
O129        O  0.89701591  0.85642332  0.11367182    -0.74000
O130        O  0.99649001  0.92283073  0.14102631    -0.74400
O131        O  0.96734385  0.93609090  0.04108464    -0.74400
O132        O  0.92506917  0.97012903  0.03427875    -0.74100
C133        C  0.90983341  0.01390723  0.16623924     0.77600
C134        C  0.89231883  0.89155883  0.25961719     0.78100
C135        C  0.83101415  0.93455168  0.11591594     0.77100
C136        C  0.92388706  0.84528538  0.11747700     0.77500
C137        C  0.00441997  0.94519708  0.17081733     0.78600
C138        C  0.95144313  0.96114925  0.05791727     0.77700
C139        C  0.00769198  0.50738903  0.29766893     0.30500
C140        C  0.00536743  0.50799872  0.06986612     0.30500
C141        C  0.97788157  0.49545967  0.32309349    -0.05700
C142        C  0.03311540  0.48811671  0.32330296    -0.06500
C143        C  0.01355793  0.53886631  0.32637178    -0.06300
C144        C  0.97445646  0.50169615  0.04035639    -0.05700
C145        C  0.02584366  0.48364805  0.04500338    -0.06500
C146        C  0.01754231  0.53775550  0.04543459    -0.06300
C147        C  0.94711264  0.48644256  0.05208184    -0.31700
N148        N  0.93286844  0.47365330  0.34658908     0.14800
C149        C  0.94934174  0.48265600  0.30708236    -0.31700
H150        H  0.94191630  0.47872041  0.26909001     0.16700
C151        C  0.05348462  0.47274492  0.06193135    -0.30700
N152        N  0.07132042  0.46543369  0.02338612     0.13500
C153        C  0.06329649  0.48192904  0.30960843    -0.30700
C154        C  0.01806905  0.56855602  0.06048218    -0.31000
N155        N  0.01842939  0.58790457  0.35459528     0.14000
H156        H  0.01460188  0.57748367  0.09755024     0.16600
C157        C  0.01752066  0.56912615  0.31336187    -0.31000
H158        H  0.01804568  0.57706226  0.27623230     0.16600
H159        H  0.07157016  0.48210458  0.27245829     0.16600
H160        H  0.94072342  0.48045460  0.08875599     0.16700
H161        H  0.06214076  0.47488882  0.09959127     0.16600
C162        C  0.00481687  0.50798860  0.13113981     0.30500
C163        C  0.00590105  0.50773850  0.23616110     0.30500
C164        C  0.00283549  0.47604185  0.15490645    -0.05700
C165        C  0.03347132  0.52319512  0.15918036    -0.06500
C166        C  0.97830185  0.52443111  0.15795621    -0.06300
C167        C  0.00353171  0.47577218  0.20737803    -0.05700
C168        C  0.03377664  0.52341085  0.21105265    -0.06500
C169        C  0.97884578  0.52461051  0.21076862    -0.06300
C170        C  0.98786573  0.44858518  0.21887911    -0.31700
N171        N  0.97711143  0.43301361  0.17709286     0.14800
C172        C  0.98670985  0.44928893  0.13830383    -0.31700
H173        H  0.97912483  0.44422727  0.10068322     0.16700
C174        C  0.06282072  0.53414947  0.22694327    -0.30700
N175        N  0.08078725  0.53840218  0.18730096     0.13500
C176        C  0.06283784  0.53267568  0.14593171    -0.30700
C177        C  0.96489725  0.55154654  0.22556788    -0.31000
N178        N  0.95623261  0.56726560  0.18567515     0.14000
H179        H  0.96422873  0.56081745  0.26294749     0.16600
C180        C  0.96368179  0.55062750  0.14481390    -0.31000
H181        H  0.96283292  0.55931635  0.10812220     0.16600
H182        H  0.07133987  0.53246551  0.10881938     0.16600
H183        H  0.98168423  0.44255569  0.25554766     0.16700
H184        H  0.07133029  0.53548242  0.26466958     0.16600
C185        C  0.36474739  0.00025559  0.04803371     0.30500
C186        C  0.36852826  0.00548743  0.27690757     0.30500
C187        C  0.39605471  0.99409893  0.02167407    -0.05700
C188        C  0.34349665  0.97380839  0.02351636    -0.06500
C189        C  0.35347604  0.02803895  0.01921115    -0.06300
C190        C  0.40005542  0.99839674  0.30311559    -0.05700
C191        C  0.34618025  0.98256215  0.30229425    -0.06500
C192        C  0.36029791  0.03604761  0.30565661    -0.06300
C193        C  0.42376372  0.98045291  0.28608549    -0.31700
N194        N  0.43426300  0.96400351  0.32361006     0.14800
C195        C  0.42422639  0.98238499  0.03599157    -0.31700
H196        H  0.43161741  0.97910899  0.07355321     0.16700
C197        C  0.32354981  0.96119467  0.28563952    -0.30700
N198        N  0.30956338  0.94848762  0.32477532     0.13500
C199        C  0.31844386  0.95616171  0.03898494    -0.30700
C200        C  0.36406362  0.06665462  0.29237193    -0.31000
N201        N  0.35007202  0.07507728  0.98919586     0.14000
H202        H  0.36250252  0.07495984  0.25549403     0.16600
C203        C  0.35087743  0.05908753  0.03114505    -0.31000
H204        H  0.35267278  0.06969331  0.06777213     0.16600
H205        H  0.31084097  0.95502718  0.07647751     0.16600
H206        H  0.43058184  0.97723322  0.24837060     0.16700
H207        H  0.31646956  0.95679739  0.24755526     0.16600
C208        C  0.36757316  0.00393975  0.21467061     0.30500
C209        C  0.36521953  0.00308252  0.10914184     0.30500
C210        C  0.37157670  0.97228642  0.18586090    -0.05700
C211        C  0.33722492  0.01406816  0.18901493    -0.06500
C212        C  0.39225333  0.02437208  0.18850418    -0.06300
C213        C  0.37074746  0.97227840  0.13358066    -0.05700
C214        C  0.33573806  0.01333930  0.13655935    -0.06500
C215        C  0.39066423  0.02461302  0.13607802    -0.06300
C216        C  0.38529330  0.94632635  0.11618098    -0.31700
N217        N  0.39598917  0.93119430  0.15489213     0.14800
C218        C  0.38636272  0.94571844  0.19693597    -0.31700
H219        H  0.39222379  0.93882665  0.23345858     0.16700
C220        C  0.30442204  0.01259543  0.12334495    -0.30700
N221        N  0.28721404  0.01255497  0.16465391     0.13500
C222        C  0.30696365  0.01368801  0.20434053    -0.30700
C223        C  0.40322263  0.05329689  0.12428590    -0.31000
N224        N  0.41256150  0.06993283  0.16592248     0.14000
H225        H  0.40306697  0.06242395  0.08796890     0.16600
C226        C  0.40768121  0.05156574  0.20442654    -0.31000
H227        H  0.41184144  0.05896021  0.24235649     0.16600
H228        H  0.29966628  0.01140299  0.24183562     0.16600
H229        H  0.39067377  0.94062180  0.07847117     0.16700
H230        H  0.29482071  0.00876977  0.08641514     0.16600
Zn231      Zn  0.50422416  0.46055862  0.32052282     1.49700
Zn232      Zn  0.41988436  0.47968126  0.05415546     1.49400
Zn233      Zn  0.43226483  0.41565743  0.32294672     1.49100
Zn234      Zn  0.46459025  0.41377856  0.01999619     1.49500
O235        O  0.43399965  0.44961542  0.00658051    -1.83600
O236        O  0.50913411  0.50738518  0.31184086    -0.74200
O237        O  0.37258661  0.47847757  0.06930767    -0.74100
O238        O  0.45598360  0.40470406  0.26186130    -0.73600
O239        O  0.42827421  0.52321448  0.03470657    -0.74300
O240        O  0.49972506  0.43185444  0.26164589    -0.73900
O241        O  0.38566183  0.43196002  0.32332962    -0.74400
O242        O  0.44464559  0.36832720  0.01098636    -0.73800
O243        O  0.45158301  0.46426522  0.09937104    -0.74600
O244        O  0.42894711  0.37509101  0.35291975    -0.74000
O245        O  0.47825675  0.42370395  0.08705480    -0.74400
O246        O  0.50763624  0.41798363  0.99300939    -0.74400
O247        O  0.54399407  0.44910249  0.34988987    -0.74100
C248        C  0.44367630  0.53621559  0.00161913     0.77600
C249        C  0.35057476  0.46034547  0.05219550     0.78100
C250        C  0.47044815  0.43014301  0.25782456     0.77100
C251        C  0.41608144  0.35876357  0.00571178     0.77500
C252        C  0.45283896  0.43526042  0.09572045     0.78600
C253        C  0.52164601  0.44031212  0.97265844     0.77700
Zn254      Zn  0.44887809  0.39437041  0.16112554     1.49700
Zn255      Zn  0.46740616  0.46611542  0.18742484     1.49400
Zn256      Zn  0.40167806  0.45884399  0.14192106     1.49100
Zn257      Zn  0.40258581  0.42169565  0.23642344     1.49500
O258        O  0.42910566  0.43428651  0.18260404    -1.83600
O259        O  0.49727644  0.39702254  0.16126159    -0.74200
O260        O  0.46523780  0.50730441  0.15879139    -0.74100
O261        O  0.39885756  0.42732080  0.08570311    -0.73600
O262        O  0.50914919  0.44740790  0.17262764    -0.74300
O263        O  0.42665006  0.38727372  0.09701835    -0.73900
O264        O  0.41570849  0.50554896  0.13586922    -0.74400
O265        O  0.35686438  0.43118022  0.22848539    -0.73800
O266        O  0.46670022  0.48306114  0.25376398    -0.74600
O267        O  0.35984559  0.46283184  0.16720814    -0.74000
O268        O  0.42497287  0.45738910  0.27229414    -0.74400
O269        O  0.40388123  0.37418319  0.25378889    -0.74400
O270        O  0.43654568  0.35739176  0.19786137    -0.74100
C271        C  0.51740575  0.41965261  0.16514413     0.77600
C272        C  0.44160896  0.52058692  0.14314226     0.78100
C273        C  0.42495086  0.41545034  0.08760848     0.77100
C274        C  0.34458666  0.45024100  0.20052269     0.77500
C275        C  0.45370224  0.45829074  0.26488526     0.78600
C276        C  0.41852241  0.35223811  0.23300135     0.77700
C277        C  0.41632746  0.10342604  0.17104493    -0.02700
C278        C  0.40135887  0.12231074  0.13775873    -0.05300
C279        C  0.40029477  0.15427469  0.14715340    -0.20400
C280        C  0.41415733  0.16859324  0.18995872     0.25400
C281        C  0.43026929  0.14997212  0.22240396    -0.17900
C282        C  0.43130676  0.11788814  0.21302009    -0.07900
C283        C  0.40995270  0.20255527  0.19941756    -0.18200
C284        C  0.42373067  0.22034722  0.23643479    -0.23000
C285        C  0.41931772  0.25440344  0.24311928     0.27400
C286        C  0.44332751  0.27341323  0.26532603    -0.19700
C287        C  0.44160254  0.30570752  0.26695870    -0.09400
C288        C  0.41542750  0.31976498  0.24774646    -0.09900
C289        C  0.39036374  0.30078387  0.22907651    -0.02900
C290        C  0.39221177  0.26844584  0.22685295    -0.18000
H291        H  0.38905603  0.11233704  0.10549902     0.11100
H292        H  0.38778029  0.16781681  0.12128545     0.11200
H293        H  0.44140720  0.15969132  0.25578283     0.10800
H294        H  0.44317431  0.10424560  0.23945327     0.12000
H295        H  0.39502317  0.21360233  0.17336223     0.12000
H296        H  0.44045269  0.21042093  0.26084892     0.13900
H297        H  0.46427311  0.26335367  0.27892935     0.10500
H298        H  0.46154910  0.31982500  0.28051506     0.12600
H299        H  0.37025933  0.31102629  0.21288318     0.09200
H300        H  0.37273661  0.25462998  0.21104372     0.11900
C301        C  0.40705130  0.32516436  0.00649902    -0.02700
C302        C  0.37611862  0.31599420  0.01555085    -0.05300
C303        C  0.36676845  0.28471941  0.01602432    -0.20400
C304        C  0.38783395  0.26147175  0.00676072     0.25400
C305        C  0.41896505  0.27051570  0.99764127    -0.17900
C306        C  0.42845372  0.30203583  0.99772905    -0.07900
C307        C  0.37610406  0.22845276  0.00843557    -0.18200
C308        C  0.39060151  0.20400446  0.98884488    -0.23000
C309        C  0.37791820  0.17122733  0.98872339     0.27400
C310        C  0.38990616  0.14962803  0.95521193    -0.19700
C311        C  0.37969430  0.11855574  0.95393641    -0.09400
C312        C  0.35756406  0.10785318  0.98706599    -0.09900
C313        C  0.34551554  0.12926614  0.02104320    -0.02900
C314        C  0.35536715  0.16065998  0.02168275    -0.18000
H315        H  0.35900695  0.33309614  0.02276380     0.11100
H316        H  0.34275127  0.27867104  0.02347197     0.11200
H317        H  0.43619584  0.25349816  0.99116880     0.10800
H318        H  0.45243520  0.30830438  0.99045587     0.12000
H319        H  0.35355742  0.22449319  0.02446206     0.12000
H320        H  0.41206512  0.20809991  0.96969651     0.13900
H321        H  0.40765829  0.15676288  0.93025204     0.10500
H322        H  0.39014979  0.10260490  0.92831311     0.12600
H323        H  0.32880115  0.12157865  0.04752238     0.09200
H324        H  0.34598462  0.17619747  0.04906517     0.11900
C325        C  0.31258847  0.45942746  0.20690091    -0.02700
C326        C  0.28801323  0.43749764  0.20968966    -0.05300
C327        C  0.25741729  0.44703868  0.21005331    -0.20400
C328        C  0.25115141  0.47858113  0.20869108     0.25400
C329        C  0.27601527  0.50047265  0.20710403    -0.17900
C330        C  0.30640261  0.49090846  0.20594886    -0.07900
C331        C  0.21856731  0.48763837  0.20408350    -0.18200
C332        C  0.20914008  0.51620205  0.21566798    -0.23000
C333        C  0.17691811  0.52484333  0.20538077     0.27400
C334        C  0.16228738  0.54513996  0.23791848    -0.19700
C335        C  0.13099499  0.55135409  0.23035387    -0.09400
C336        C  0.11409788  0.53771899  0.18967630    -0.09900
C337        C  0.12954945  0.51913201  0.15545738    -0.02900
C338        C  0.16058762  0.51280276  0.16323304    -0.18000
H339        H  0.29241821  0.41308144  0.20978163     0.11100
H340        H  0.23856867  0.42975081  0.21065098     0.11200
H341        H  0.27215332  0.52484909  0.20442925     0.10800
H342        H  0.32518762  0.50812536  0.20336135     0.12000
H343        H  0.20159818  0.46996244  0.19030063     0.12000
H344        H  0.22485830  0.53325090  0.23440665     0.13900
H345        H  0.17465950  0.55504932  0.27028050     0.10500
H346        H  0.11964241  0.56583481  0.25719695     0.12600
H347        H  0.11721658  0.50783042  0.12424330     0.09200
H348        H  0.17162498  0.49784781  0.13685042     0.11900
C349        C  0.10444739  0.46691086  0.02731724    -0.02700
C350        C  0.12070792  0.49460829  0.01768486    -0.05300
C351        C  0.16692653  0.49257285  0.39030734    -0.20400
C352        C  0.18303487  0.47986543  0.35047321     0.25400
C353        C  0.16517570  0.46685293  0.31012901    -0.17900
C354        C  0.13232096  0.46668405  0.30992203    -0.07900
C355        C  0.21821279  0.48209812  0.35149795    -0.18200
C356        C  0.23640369  0.46032472  0.33138173    -0.23000
C357        C  0.27160492  0.46120337  0.33368199     0.27400
C358        C  0.28685270  0.43316499  0.32933978    -0.19700
C359        C  0.31942033  0.43249664  0.32747955    -0.09400
C360        C  0.31870539  0.46234159  0.06925124    -0.09900
C361        C  0.32310207  0.48814286  0.33457041    -0.02900
C362        C  0.29030342  0.48879343  0.33669256    -0.18000
H363        H  0.10831899  0.51438880  0.00619372     0.11100
H364        H  0.17976111  0.50323189  0.42149357     0.11200
H365        H  0.17655892  0.45742223  0.27818311     0.10800
H366        H  0.11956793  0.45675000  0.27800540     0.12000
H367        H  0.22938909  0.50145260  0.37250643     0.12000
H368        H  0.22490495  0.43975867  0.31412771     0.13900
H369        H  0.27340270  0.41146380  0.32680151     0.10500
H370        H  0.32986087  0.41023981  0.32419324     0.12600
H371        H  0.31635632  0.51187348  0.06453659     0.09200
H372        H  0.27964718  0.51094150  0.33940098     0.11900
C373        C  0.03742826  0.95678734  0.17248705    -0.02700
C374        C  0.04549306  0.98766350  0.18702424    -0.05300
C375        C  0.07636513  0.99910517  0.18498156    -0.20400
C376        C  0.09995791  0.97982405  0.16933372     0.25400
C377        C  0.09182907  0.94891743  0.15492645    -0.17900
C378        C  0.06096007  0.93764230  0.15619043    -0.07900
C379        C  0.13258289  0.99264996  0.16660334    -0.18200
C380        C  0.15741144  0.97518737  0.17312710    -0.23000
C381        C  0.19042253  0.98679038  0.17115478     0.27400
C382        C  0.21272943  0.97183085  0.19867509    -0.19700
C383        C  0.24420160  0.98062300  0.19682726    -0.09400
C384        C  0.25444572  0.00426939  0.16650037    -0.09900
C385        C  0.23230634  0.01909164  0.13807828    -0.02900
C386        C  0.20047490  0.01066973  0.14075321    -0.18000
H387        H  0.02782199  0.00312263  0.19906839     0.11100
H388        H  0.08187637  0.02304659  0.19592895     0.11200
H389        H  0.10913054  0.93354815  0.14138013     0.10800
H390        H  0.05548114  0.91385563  0.14429719     0.12000
H391        H  0.13617996  0.01724459  0.16138678     0.12000
H392        H  0.15352186  0.95137133  0.18328792     0.13900
H393        H  0.20568603  0.95322314  0.22185275     0.10500
H394        H  0.26075204  0.96850646  0.21847283     0.12600
H395        H  0.23966547  0.03726499  0.11420540     0.09200
H396        H  0.18394877  0.02224921  0.11818339     0.11900
C397        C  0.95049662  0.59981409  0.18553949    -0.02700
C398        C  0.96769041  0.62088630  0.21714518    -0.05300
C399        C  0.96606750  0.65271418  0.21170271    -0.20400
C400        C  0.94694064  0.66436367  0.17501912     0.25400
C401        C  0.92898043  0.64325812  0.14418253    -0.17900
C402        C  0.93084866  0.61135795  0.14940481    -0.07900
C403        C  0.94780639  0.69842664  0.16876591    -0.18200
C404        C  0.92589756  0.71313552  0.14387974    -0.23000
C405        C  0.92662900  0.74717351  0.13826484     0.27400
C406        C  0.89852150  0.76115487  0.12884894    -0.19700
C407        C  0.89785629  0.79283828  0.12195877    -0.09400
C408        C  0.92543130  0.81146122  0.12354977    -0.09900
C409        C  0.95369848  0.79755892  0.13307294    -0.02900
C410        C  0.95433905  0.76569105  0.14022532    -0.18000
H411        H  0.98354290  0.61278728  0.24459205     0.11100
H412        H  0.98029771  0.66832692  0.23570799     0.11200
H413        H  0.91450447  0.65101331  0.11457729     0.10800
H414        H  0.91771171  0.59557471  0.12417228     0.12000
H415        H  0.96677203  0.71194946  0.18705455     0.12000
H416        H  0.90554490  0.70013440  0.12902857     0.13900
H417        H  0.87687378  0.74749356  0.12698628     0.10500
H418        H  0.87558147  0.80269278  0.11509452     0.12600
H419        H  0.97531123  0.81124125  0.13465043     0.09200
H420        H  0.97658805  0.75562080  0.14600159     0.11900
C421        C  0.27995010  0.93145120  0.32209805    -0.02700
C422        C  0.26934749  0.91605691  0.27788069    -0.05300
C423        C  0.23799603  0.90686496  0.27088175    -0.20400
C424        C  0.21668976  0.91316859  0.30771527     0.25400
C425        C  0.22784819  0.92509045  0.35387114    -0.17900
C426        C  0.25918242  0.93390643  0.36108376    -0.07900
C427        C  0.18288204  0.91021250  0.29591172    -0.18200
C428        C  0.16396841  0.93229636  0.31163229    -0.23000
C429        C  0.13054664  0.93366179  0.29798872     0.27400
C430        C  0.11684848  0.96226613  0.30392456    -0.19700
C431        C  0.08506680  0.96476314  0.29621068    -0.09400
C432        C  0.06593809  0.93864184  0.28237487    -0.09900
C433        C  0.07969588  0.91006987  0.27449520    -0.02900
C434        C  0.11179460  0.90755100  0.28232250    -0.18000
H435        H  0.28486198  0.91272109  0.24761199     0.11100
H436        H  0.23001285  0.89706138  0.23534176     0.11200
H437        H  0.21207546  0.92902238  0.38368869     0.10800
H438        H  0.26649566  0.94465151  0.39616684     0.12000
H439        H  0.17437448  0.89212303  0.26968988     0.12000
H440        H  0.17402626  0.95180592  0.33377537     0.13900
H441        H  0.13073856  0.98278355  0.31559603     0.10500
H442        H  0.07537625  0.98722614  0.30219128     0.12600
H443        H  0.06552740  0.88951627  0.26417577     0.09200
H444        H  0.12152582  0.88503207  0.27799679     0.11900
C445        C  0.01611375  0.62108112  0.35475164    -0.02700
C446        C  0.03101813  0.63771360  0.98713777    -0.05300
C447        C  0.02454150  0.66899559  0.98442197    -0.20400
C448        C  0.00155090  0.68200200  0.01355576     0.25400
C449        C  0.98591534  0.66322356  0.04688420    -0.17900
C450        C  0.99272467  0.63204675  0.05011104    -0.07900
C451        C  0.99530503  0.71534786  0.00911964    -0.18200
C452        C  0.96828037  0.72801215  0.02121950    -0.23000
C453        C  0.96250119  0.76146052  0.01645067     0.27400
C454        C  0.93180573  0.77090817  0.01133388    -0.19700
C455        C  0.92563875  0.80224528  0.00710637    -0.09400
C456        C  0.95786177  0.82975665  0.34111610    -0.09900
C457        C  0.98066216  0.81538023  0.01443093    -0.02900
C458        C  0.98686265  0.78417798  0.01852300    -0.18000
H459        H  0.04840380  0.62812802  0.96357707     0.11100
H460        H  0.03716467  0.68297593  0.95877907     0.11200
H461        H  0.96865163  0.67254434  0.07080122     0.10800
H462        H  0.97990251  0.61798964  0.07534064     0.12000
H463        H  0.01330155  0.72961412  0.99286635     0.12000
H464        H  0.94912411  0.71327249  0.03301189     0.13900
H465        H  0.91258720  0.75396551  0.01013889     0.10500
H466        H  0.90191331  0.80896755  0.00194110     0.12600
H467        H  0.99983663  0.83237456  0.01501543     0.09200
H468        H  0.01072876  0.77809271  0.02386587     0.11900
C469        C  0.47404736  0.76861000  0.14438294    -0.02700
C470        C  0.45551340  0.75556362  0.18087575    -0.05300
C471        C  0.44536010  0.72458021  0.17689279    -0.20400
C472        C  0.45351041  0.70576875  0.13663909     0.25400
C473        C  0.47110852  0.71880927  0.09923405    -0.17900
C474        C  0.48140302  0.74979965  0.10323469    -0.07900
C475        C  0.44394520  0.67254535  0.13570958    -0.18200
C476        C  0.46071579  0.65077826  0.11369558    -0.23000
C477        C  0.45436061  0.61733854  0.11923162     0.27400
C478        C  0.47939739  0.59786107  0.11689152    -0.19700
C479        C  0.47496174  0.56640430  0.12405138    -0.09400
C480        C  0.44521907  0.55361177  0.13275944    -0.09900
C481        C  0.41984260  0.57282300  0.13343768    -0.02900
C482        C  0.42438929  0.60456745  0.12703734    -0.18000
H483        H  0.44869985  0.76894168  0.21283293     0.11100
H484        H  0.43163264  0.71508578  0.20601270     0.11200
H485        H  0.47700188  0.70520564  0.06682142     0.10800
H486        H  0.49564446  0.75870486  0.07438990     0.12000
H487        H  0.42458556  0.66566253  0.15824643     0.12000
H488        H  0.48187351  0.65753480  0.09530956     0.13900
H489        H  0.50262695  0.60713363  0.11060165     0.10500
H490        H  0.49492407  0.55205303  0.12288549     0.12600
H491        H  0.39668867  0.56342221  0.13981795     0.09200
H492        H  0.40444437  0.61890061  0.12756999     0.11900
C493        C  0.79714296  0.93836735  0.12200679    -0.02700
C494        C  0.78095048  0.91906311  0.15390065    -0.05300
C495        C  0.74968644  0.92292737  0.16305704    -0.20400
C496        C  0.73328722  0.94597642  0.14037232     0.25400
C497        C  0.74931865  0.96553918  0.10834981    -0.17900
C498        C  0.78107158  0.96195559  0.09976397    -0.07900
C499        C  0.69970778  0.94789922  0.15184737    -0.18200
C500        C  0.67959223  0.96751181  0.13267502    -0.23000
C501        C  0.64574793  0.96500257  0.14324732     0.27400
C502        C  0.62388405  0.97173709  0.10660560    -0.19700
C503        C  0.59219564  0.96456959  0.11248347    -0.09400
C504        C  0.58165739  0.95067594  0.15535646    -0.09900
C505        C  0.60332333  0.94684822  0.19387804    -0.02900
C506        C  0.63490130  0.95397966  0.18798837    -0.18000
H507        H  0.79258703  0.90113343  0.17282008     0.11100
H508        H  0.73824710  0.90767606  0.18826492     0.11200
H509        H  0.73772038  0.98369123  0.09014120     0.10800
H510        H  0.79299990  0.97755512  0.07568823     0.12000
H511        H  0.69068285  0.93072066  0.17639700     0.12000
H512        H  0.68717407  0.98360524  0.10546054     0.13900
H513        H  0.63149970  0.98077748  0.07213088     0.10500
H514        H  0.57614650  0.96847068  0.08243658     0.12600
H515        H  0.59628856  0.93651590  0.22758053     0.09200
H516        H  0.65085876  0.94983951  0.21805011     0.11900
C517        C  0.44243239  0.56990228  0.99769281    -0.02700
C518        C  0.48069115  0.57869364  0.27333865    -0.05300
C519        C  0.48947049  0.60925735  0.26433567    -0.20400
C520        C  0.51794580  0.62225375  0.28284747     0.25400
C521        C  0.53870427  0.60335983  0.30695017    -0.17900
C522        C  0.53017859  0.57249732  0.31495347    -0.07900
C523        C  0.52408116  0.65591007  0.27870443    -0.18200
C524        C  0.54032919  0.67354827  0.31312177    -0.23000
C525        C  0.53932901  0.70779730  0.31532576     0.27400
C526        C  0.53352551  0.72437851  0.27307899    -0.19700
C527        C  0.52772182  0.75570341  0.27712318    -0.09400
C528        C  0.42597865  0.78415925  0.98417157    -0.09900
C529        C  0.53622235  0.75551043  0.36535390    -0.02900
C530        C  0.54183395  0.72388389  0.36124213    -0.18000
H531        H  0.45809040  0.56951124  0.26034313     0.11100
H532        H  0.47332821  0.62320869  0.24486524     0.11200
H533        H  0.56122728  0.61246243  0.32027919     0.10800
H534        H  0.54605660  0.55853206  0.33490220     0.12000
H535        H  0.51086979  0.66691468  0.25037637     0.12000
H536        H  0.55096543  0.66270648  0.34421784     0.13900
H537        H  0.53254083  0.71311919  0.23681491     0.10500
H538        H  0.52141965  0.76690331  0.24375919     0.12600
H539        H  0.53729848  0.76695124  0.40144831     0.09200
H540        H  0.54669335  0.71165619  0.39432588     0.11900
C541        C  0.60922568  0.90430735  0.33204721    -0.02700
C542        C  0.62434919  0.92070640  0.37207624    -0.05300
C543        C  0.65647611  0.92651149  0.37285389    -0.20400
C544        C  0.67454780  0.91606305  0.33385786     0.25400
C545        C  0.65969918  0.89929572  0.29397636    -0.17900
C546        C  0.62745953  0.89339933  0.29320196    -0.07900
C547        C  0.70836895  0.92467479  0.33527664    -0.18200
C548        C  0.72976515  0.90955962  0.30945687    -0.23000
C549        C  0.76342950  0.91857561  0.31326041     0.27400
C550        C  0.78534296  0.89564525  0.30860730    -0.19700
C551        C  0.81711275  0.90320310  0.31506381    -0.09400
C552        C  0.82758859  0.93400653  0.32483112    -0.09900
C553        C  0.80581328  0.95720368  0.32660758    -0.02900
C554        C  0.77402622  0.94956371  0.32137166    -0.18000
H555        H  0.61133519  0.92993912  0.40239430     0.11100
H556        H  0.66723295  0.93961900  0.40392311     0.11200
H557        H  0.67266986  0.89141480  0.26265653     0.10800
H558        H  0.61694570  0.88047678  0.26189028     0.12000
H559        H  0.71613512  0.94357007  0.36064527     0.12000
H560        H  0.72291541  0.88877788  0.28765633     0.13900
H561        H  0.77780077  0.87167732  0.30172432     0.10500
H562        H  0.83349144  0.88497462  0.31251217     0.12600
H563        H  0.81338644  0.98121098  0.33287733     0.09200
H564        H  0.75782588  0.96795940  0.32327330     0.11900
C565        C  0.90687058  0.04709297  0.17653758    -0.02700
C566        C  0.87793002  0.05839736  0.18837776    -0.05300
C567        C  0.87374855  0.09022314  0.19137094    -0.20400
C568        C  0.89831134  0.11141049  0.18208630     0.25400
C569        C  0.92730627  0.09981218  0.16947009    -0.17900
C570        C  0.93142434  0.06790660  0.16657347    -0.07900
C571        C  0.89207876  0.14505177  0.18499352    -0.18200
C572        C  0.91393896  0.16816331  0.18306986    -0.23000
C573        C  0.90674062  0.20153533  0.18531527     0.27400
C574        C  0.92797692  0.22300866  0.16590268    -0.19700
C575        C  0.92159210  0.25440029  0.16550850    -0.09400
C576        C  0.89407739  0.26506052  0.18548244    -0.09900
C577        C  0.87353231  0.24393522  0.20704472    -0.02900
C578        C  0.87967914  0.21248439  0.20688247    -0.18000
H579        H  0.85842637  0.04254471  0.19444904     0.11100
H580        H  0.85108884  0.09831836  0.20057378     0.11200
H581        H  0.94680482  0.11493407  0.16098609     0.10800
H582        H  0.95363775  0.05941706  0.15571873     0.12000
H583        H  0.86798568  0.15083818  0.18845164     0.12000
H584        H  0.93804661  0.16288924  0.17848074     0.13900
H585        H  0.94926594  0.21536159  0.14993242     0.10500
H586        H  0.93805542  0.27033514  0.14936342     0.12600
H587        H  0.85225522  0.25173238  0.22281328     0.09200
H588        H  0.86330345  0.19704029  0.22415471     0.11900
C589        C  0.76930214  0.39661186  0.18077472    -0.02700
C590        C  0.75528122  0.40920868  0.22288521    -0.05300
C591        C  0.72318979  0.41265296  0.22384308    -0.20400
C592        C  0.70406842  0.40374211  0.18286174     0.25400
C593        C  0.71788251  0.39131671  0.14055988    -0.17900
C594        C  0.74995929  0.38776893  0.13958985    -0.07900
C595        C  0.67027402  0.40943654  0.18505283    -0.18200
C596        C  0.64848866  0.39632601  0.15351559    -0.23000
C597        C  0.61496944  0.40291410  0.15637969     0.27400
C598        C  0.59266999  0.38055984  0.13806639    -0.19700
C599        C  0.56093091  0.38584633  0.14088271    -0.09400
C600        C  0.55088725  0.41390544  0.16122083    -0.09900
C601        C  0.57322495  0.43664198  0.17819393    -0.02900
C602        C  0.60488179  0.43124300  0.17583773    -0.18000
H603        H  0.76897247  0.41699000  0.25509852     0.11100
H604        H  0.71327625  0.42259906  0.25679580     0.11200
H605        H  0.70432280  0.38513119  0.10745444     0.10800
H606        H  0.75939023  0.37873025  0.10579577     0.12000
H607        H  0.66301891  0.42448230  0.21513548     0.12000
H608        H  0.65490966  0.37907042  0.12606254     0.13900
H609        H  0.59982892  0.35874532  0.12218469     0.10500
H610        H  0.54427362  0.36804040  0.12696744     0.12600
H611        H  0.56623855  0.45859315  0.19379484     0.09200
H612        H  0.62132002  0.44949334  0.18868931     0.11900
C613        C  0.93231577  0.28711194  0.32771511    -0.02700
C614        C  0.88047660  0.25146617  0.00720761    -0.05300
C615        C  0.88119032  0.21944813  0.00215949    -0.20400
C616        C  0.90315194  0.20561010  0.97246113     0.25400
C617        C  0.92357654  0.22431070  0.94577525    -0.17900
C618        C  0.92282752  0.25648464  0.95069469    -0.07900
C619        C  0.90345236  0.17160256  0.96953966    -0.18200
C620        C  0.92954078  0.15620802  0.96316556    -0.23000
C621        C  0.93019482  0.12204764  0.96165625     0.27400
C622        C  0.95580809  0.10804966  0.94085677    -0.19700
C623        C  0.95697458  0.07593932  0.93721277    -0.09400
C624        C  0.94554806  0.06813380  0.28256498    -0.09900
C625        C  0.90733633  0.07115983  0.97669641    -0.02900
C626        C  0.90625390  0.10323885  0.98066167    -0.18000
H627        H  0.88364515  0.28047690  0.34264486     0.11100
H628        H  0.86485937  0.20540136  0.02228286     0.11200
H629        H  0.93999080  0.21418778  0.92101837     0.10800
H630        H  0.93930052  0.27043845  0.93080137     0.12000
H631        H  0.88149305  0.15924898  0.97472340     0.12000
H632        H  0.95134236  0.16907132  0.95835547     0.13900
H633        H  0.97475460  0.12199824  0.92666929     0.10500
H634        H  0.97683316  0.06575235  0.92030716     0.12600
H635        H  0.88850173  0.05722216  0.99122277     0.09200
H636        H  0.88670568  0.11290226  0.99897105     0.11900
C637        C  0.55590719  0.43872363  0.96727763    -0.02700
C638        C  0.60636547  0.43568550  0.37098060    -0.05300
C639        C  0.63499115  0.42286183  0.36255794    -0.20400
C640        C  0.63855059  0.39097947  0.36613787     0.25400
C641        C  0.61313690  0.37228123  0.38050673    -0.17900
C642        C  0.58446063  0.38517239  0.38898444    -0.07900
C643        C  0.66849420  0.37820959  0.35146688    -0.18200
C644        C  0.67809560  0.35023473  0.36330265    -0.23000
C645        C  0.70958316  0.34071924  0.35078207     0.27400
C646        C  0.72767810  0.32668986  0.38618247    -0.19700
C647        C  0.75937283  0.32340242  0.37907115    -0.09400
C648        C  0.76846214  0.39039653  0.97360445    -0.09900
C649        C  0.75432710  0.34454734  0.29844031    -0.02900
C650        C  0.72268797  0.34788600  0.30563571    -0.18000
H651        H  0.60394128  0.46013638  0.36584772     0.11100
H652        H  0.65419445  0.43778607  0.35164655     0.11200
H653        H  0.61471830  0.34756281  0.38292202     0.10800
H654        H  0.56479855  0.37007971  0.39739167     0.12000
H655        H  0.68415859  0.39333266  0.33170362     0.12000
H656        H  0.66450846  0.33579394  0.38717524     0.13900
H657        H  0.71781739  0.32035861  0.42083426     0.10500
H658        H  0.77314729  0.31420835  0.40836319     0.12600
H659        H  0.76400605  0.35228147  0.26459467     0.09200
H660        H  0.70875593  0.35748235  0.27686340     0.11900
C661        C  0.88224410  0.37605187  0.61783845     0.30500
C662        C  0.87962686  0.37709877  0.39082977     0.30500
C663        C  0.88539246  0.40780402  0.64704566    -0.05700
C664        C  0.85438900  0.36063163  0.64315377    -0.06500
C665        C  0.90933515  0.35857331  0.64195204    -0.06300
C666        C  0.88034551  0.40935671  0.36702204    -0.05700
C667        C  0.85214730  0.36059091  0.36265241    -0.06500
C668        C  0.90720566  0.36157462  0.36445468    -0.06300
C669        C  0.89648693  0.43633427  0.38324717    -0.31700
N670        N  0.91173947  0.45044089  0.67789471     0.14800
C671        C  0.90071037  0.43529509  0.63589900    -0.31700
H672        H  0.90640016  0.44195148  0.59932161     0.16700
C673        C  0.82455801  0.34711620  0.37632195    -0.30700
N674        N  0.80670474  0.33971047  0.33548388     0.13500
C675        C  0.82539717  0.34992115  0.62759460    -0.30700
C676        C  0.92213110  0.33485829  0.37545026    -0.31000
N677        N  0.93053407  0.31415832  0.66321237     0.14000
H678        H  0.92215671  0.32433566  0.41071332     0.16600
C679        C  0.92339832  0.33219475  0.62509220    -0.31000
H680        H  0.92546830  0.32550344  0.58678831     0.16600
H681        H  0.81733785  0.34752492  0.58970566     0.16600
H682        H  0.90334591  0.44195344  0.42097632     0.16700
H683        H  0.81700304  0.34543507  0.41374289     0.16600
C684        C  0.87836692  0.37677434  0.45194356     0.30500
C685        C  0.87958460  0.37657137  0.55690235     0.30500
C686        C  0.90835813  0.38959166  0.47984102    -0.05700
C687        C  0.85236616  0.39492714  0.47924930    -0.06500
C688        C  0.87409435  0.34499610  0.47624688    -0.06300
C689        C  0.90891986  0.38931552  0.53153682    -0.05700
C690        C  0.85335379  0.39522923  0.53177710    -0.06500
C691        C  0.87445740  0.34494694  0.52826014    -0.06300
C692        C  0.93760016  0.40174761  0.54756453    -0.31700
N693        N  0.95400372  0.41084279  0.50813505     0.14800
C694        C  0.93682505  0.40239522  0.46671049    -0.31700
H695        H  0.94386170  0.40645294  0.42958662     0.16700
C696        C  0.82376680  0.40291404  0.54668324    -0.30700
N697        N  0.80439111  0.40628415  0.50698311     0.13500
C698        C  0.82166333  0.40125560  0.46606421    -0.30700
C699        C  0.87188079  0.31436372  0.54083586    -0.31000
N700        N  0.87136502  0.29589834  0.49921907     0.14000
H701        H  0.87227997  0.30606012  0.57778701     0.16600
C702        C  0.87161331  0.31439852  0.45989502    -0.31000
H703        H  0.87102939  0.30610796  0.42188828     0.16600
H704        H  0.81223130  0.40071360  0.42886993     0.16600
H705        H  0.94534563  0.40509991  0.58550049     0.16700
H706        H  0.81622843  0.40357576  0.58430172     0.16600
C707        C  0.49877954  0.87896105  0.38094465     0.30500
C708        C  0.49740511  0.87892144  0.61111638     0.30500
C709        C  0.47406577  0.89747449  0.35505824    -0.05700
C710        C  0.52698351  0.89387951  0.35488286    -0.06500
C711        C  0.49621596  0.84656600  0.35310438    -0.06300
C712        C  0.47779432  0.90124589  0.64273029    -0.05700
C713        C  0.52888622  0.88415092  0.63964680    -0.06500
C714        C  0.48683962  0.84779718  0.63222537    -0.06300
C715        C  0.45799720  0.92399438  0.63353878    -0.31700
N716        N  0.45467109  0.94221794  0.67434852     0.14800
C717        C  0.47071197  0.92949797  0.35878378    -0.31700
H718        H  0.48191674  0.94580920  0.38517426     0.16700
C719        C  0.55791126  0.89530701  0.62811119    -0.30700
N720        N  0.57724675  0.89363833  0.66784887     0.13500
C721        C  0.55720534  0.90041605  0.37013314    -0.30700
C722        C  0.48819098  0.81784290  0.61384400    -0.31000
N723        N  0.51804242  0.80303705  0.32711365     0.14000
H724        H  0.49434670  0.81082184  0.57683789     0.16600
C725        C  0.50802584  0.81886256  0.36721210    -0.31000
H726        H  0.51059126  0.81167488  0.40460317     0.16600
H727        H  0.56542196  0.90300739  0.40791290     0.16600
H728        H  0.44547929  0.92543310  0.60095186     0.16700
H729        H  0.56454114  0.90374986  0.59283650     0.16600
C730        C  0.49672770  0.88028507  0.54879031     0.30500
C731        C  0.49694104  0.87826000  0.44298011     0.30500
C732        C  0.49712178  0.91250439  0.52300330    -0.05700
C733        C  0.52441508  0.86542140  0.52252318    -0.06500
C734        C  0.46907035  0.86203404  0.51983954    -0.06300
C735        C  0.49235314  0.90972736  0.47024999    -0.05700
C736        C  0.52485024  0.86552596  0.47064437    -0.06500
C737        C  0.47037738  0.85960661  0.46740501    -0.06300
C738        C  0.46579726  0.92607732  0.46290000    -0.31700
N739        N  0.46004087  0.94451898  0.50137947     0.14800
C740        C  0.48054321  0.93819554  0.53710491    -0.31700
H741        H  0.48408019  0.95204697  0.57069815     0.16700
C742        C  0.55193171  0.85260806  0.45645027    -0.30700
N743        N  0.56863314  0.84594647  0.49701275     0.13500
C744        C  0.55135228  0.85179359  0.53702627    -0.30700
C745        C  0.45234846  0.83378617  0.45247497    -0.31000
N746        N  0.43944282  0.82099319  0.49246054     0.14000
H747        H  0.45142980  0.82318434  0.41582557     0.16600
C748        C  0.44755220  0.83947982  0.53253108    -0.31000
H749        H  0.44082061  0.83450299  0.56935350     0.16600
H750        H  0.55886633  0.84725582  0.57399721     0.16600
H751        H  0.44744522  0.91939110  0.43656390     0.16700
H752        H  0.56004014  0.84988106  0.41931975     0.16600
Zn753      Zn  0.96196168  0.90623916  0.59295383     1.49700
Zn754      Zn  0.98040693  0.98258591  0.31691110     1.49400
Zn755      Zn  0.91014532  0.96508900  0.60459229     1.49100
Zn756      Zn  0.92718111  0.92644302  0.36560417     1.49500
O757        O  0.94738126  0.94210537  0.63430792    -1.83600
O758        O  0.00856995  0.90963240  0.58843562    -0.74200
O759        O  0.97146852  0.02093583  0.28207680    -0.74100
O760        O  0.89212096  0.93806950  0.53694210    -0.73600
O761        O  0.02126306  0.96587592  0.30084058    -0.74300
O762        O  0.93212646  0.90149504  0.53360092    -0.73900
O763        O  0.92203241  0.01262761  0.61659326    -0.74400
O764        O  0.87969759  0.92436256  0.35137053    -0.73800
O765        O  0.98544042  0.99972927  0.39074224    -0.74600
O766        O  0.87095100  0.95961146  0.64031457    -0.74000
O767        O  0.95314148  0.96627040  0.43537454    -0.75600
O768        O  0.93918262  0.88015648  0.36382006    -0.74400
O769        O  0.95753163  0.86624599  0.62290325    -0.74100
C770        C  0.02915536  0.92805112  0.60946580     0.77600
C771        C  0.94799117  0.02824319  0.61643737     0.78100
C772        C  0.90633908  0.91305816  0.55487643     0.77100
C773        C  0.86116497  0.93695066  0.66452851     0.77500
C774        C  0.97211793  0.98964051  0.42877181     0.78600
C775        C  0.95007565  0.85831234  0.66522902     0.77700
Zn776      Zn  0.89967075  0.96094995  0.42708440     1.49700
Zn777      Zn  0.93848701  0.95129898  0.53668513     1.49400
Zn778      Zn  0.89360971  0.89151001  0.47298649     1.49100
Zn779      Zn  0.96398406  0.91418500  0.43826645     1.49500
O780        O  0.92293708  0.92923706  0.46606571    -1.83600
O781        O  0.89799961  0.00168835  0.45971105    -0.74200
O782        O  0.90800604  0.91385410  0.59776301    -0.74100
O783        O  0.85511225  0.89534265  0.43578053    -0.73600
O784        O  0.92253072  0.99606834  0.53077164    -0.74300
O785        O  0.85272062  0.94640089  0.43061271    -0.73900
O786        O  0.87779282  0.88021114  0.54391919    -0.74400
O787        O  0.96528933  0.86528330  0.44553634    -0.73800
O788        O  0.98589563  0.95980511  0.53947728    -0.74600
O789        O  0.91500717  0.85384153  0.45584383    -0.74000
O790        O  0.00057388  0.93130301  0.47544186    -0.74400
O791        O  0.97323614  0.94208092  0.37622235    -0.74400
O792        O  0.92991472  0.97502430  0.36885623    -0.74100
C793        C  0.90836296  0.01276394  0.50060099     0.77600
C794        C  0.88757653  0.89183722  0.58564013     0.78100
C795        C  0.83950156  0.91945679  0.43334377     0.77100
C796        C  0.94274513  0.84549337  0.45187304     0.77500
C797        C  0.00691107  0.95076586  0.51048484     0.78600
C798        C  0.95614709  0.96628234  0.39341135     0.77700
C799        C  0.01136669  0.50625662  0.63099499     0.30500
C800        C  0.00840906  0.50745610  0.40307994     0.30500
C801        C  0.98166584  0.49470999  0.65670877    -0.05700
C802        C  0.03647070  0.48611615  0.65504586    -0.06500
C803        C  0.01821358  0.53727944  0.66092826    -0.06300
C804        C  0.97824789  0.49534060  0.37498242    -0.05700
C805        C  0.03356392  0.48846217  0.37598977    -0.06500
C806        C  0.01358861  0.53912432  0.37852879    -0.06300
C807        C  0.94988918  0.48235476  0.38805597    -0.31700
N808        N  0.93701986  0.47257533  0.68026345     0.14800
C809        C  0.95309627  0.48212492  0.64078124    -0.31700
H810        H  0.94552918  0.47835682  0.60282596     0.16700
C811        C  0.06406875  0.48331422  0.39015961    -0.30700
N812        N  0.08215423  0.47955990  0.35006411     0.13500
C813        C  0.06639744  0.48012577  0.64038204    -0.30700
C814        C  0.01676833  0.56988926  0.39440905    -0.31000
N815        N  0.02199539  0.58589500  0.69236004     0.14000
H816        H  0.01690209  0.57869812  0.43219154     0.16600
C817        C  0.02048939  0.56806483  0.64993895    -0.31000
H818        H  0.01962537  0.57694751  0.61342080     0.16600
H819        H  0.07439117  0.48229611  0.60331737     0.16600
H820        H  0.94296800  0.47808537  0.42517162     0.16700
H821        H  0.07283560  0.48456386  0.42771810     0.16600
C822        C  0.00798450  0.50680899  0.46453505     0.30500
C823        C  0.00907326  0.50633996  0.56947180     0.30500
C824        C  0.00708584  0.47461189  0.48810330    -0.05700
C825        C  0.03589288  0.52306922  0.49279970    -0.06500
C826        C  0.98074799  0.52231439  0.49145536    -0.06300
C827        C  0.00750715  0.47433528  0.54075449    -0.05700
C828        C  0.03631467  0.52278248  0.54445204    -0.06500
C829        C  0.98144478  0.52241503  0.54442398    -0.06300
C830        C  0.99107242  0.44748371  0.55215922    -0.31700
N831        N  0.98014462  0.43204725  0.51043940     0.14800
C832        C  0.99064582  0.44789511  0.47170521    -0.31700
H833        H  0.98352115  0.44258896  0.43399311     0.16700
C834        C  0.06310034  0.53821027  0.56091356    -0.30700
N835        N  0.07959143  0.54722807  0.52161471     0.13500
C836        C  0.06275029  0.53851511  0.48003533    -0.30700
C837        C  0.96837827  0.54973444  0.55951912    -0.31000
N838        N  0.96033108  0.56596086  0.52005510     0.14000
H839        H  0.96899432  0.55937225  0.59672276     0.16600
C840        C  0.96671298  0.54905651  0.47903545    -0.31000
H841        H  0.96597733  0.55811082  0.44267032     0.16600
H842        H  0.07022262  0.54132415  0.44279873     0.16600
H843        H  0.98430573  0.44179555  0.58870643     0.16700
H844        H  0.07046122  0.54135552  0.59901857     0.16600
C845        C  0.37010029  0.00511977  0.38356948     0.30500
C846        C  0.36563556  0.99244295  0.61338630     0.30500
C847        C  0.39962156  0.99562171  0.35580390    -0.05700
C848        C  0.34646302  0.98260359  0.35450338    -0.06500
C849        C  0.36424732  0.03619537  0.35834142    -0.06300
C850        C  0.39652984  0.99461859  0.64559790    -0.05700
C851        C  0.35046282  0.96186624  0.63188136    -0.06500
C852        C  0.34564944  0.01638360  0.64140823    -0.06300
C853        C  0.42500337  0.98211828  0.63606738    -0.31700
N854        N  0.43665072  0.96876220  0.67634554     0.14800
C855        C  0.41721226  0.97029207  0.36277909    -0.31700
H856        H  0.41297386  0.95296763  0.38929502     0.16700
C857        C  0.32659545  0.94357715  0.61043364    -0.30700
N858        N  0.30826104  0.93180891  0.64568460     0.13500
C859        C  0.32419027  0.96055554  0.36658805    -0.30700
C860        C  0.33871487  0.04633976  0.63151941    -0.31000
N861        N  0.37542102  0.08397707  0.33167767     0.14000
H862        H  0.33916636  0.05637663  0.59593622     0.16600
C863        C  0.37824840  0.06495870  0.36934626    -0.31000
H864        H  0.39508597  0.06984591  0.39859335     0.16600
H865        H  0.31855953  0.95414030  0.40337673     0.16600
H866        H  0.43621491  0.98129242  0.60133355     0.16700
H867        H  0.32118381  0.94203367  0.57147528     0.16600
C868        C  0.36797697  0.99643394  0.55213467     0.30500
C869        C  0.36972579  0.00532626  0.44749719     0.30500
C870        C  0.38346943  0.97125260  0.52004248    -0.05700
C871        C  0.33685134  0.99704155  0.52296939    -0.06500
C872        C  0.38490389  0.02688535  0.53455008    -0.06300
C873        C  0.38908076  0.97954546  0.47048959    -0.05700
C874        C  0.33758187  0.00066466  0.47146433    -0.06500
C875        C  0.38248739  0.03273136  0.48276944    -0.06300
C876        C  0.42127882  0.97736359  0.46859550    -0.31700
N877        N  0.43222650  0.96043947  0.50486995     0.14800
C878        C  0.40816737  0.95460731  0.53439257    -0.31700
H879        H  0.40729101  0.93980037  0.56432411     0.16700
C880        C  0.30744875  0.00569550  0.45673404    -0.30700
N881        N  0.28847037  0.00321994  0.49589298     0.13500
C882        C  0.30641465  0.99841238  0.53632068    -0.30700
C883        C  0.37771056  0.06417403  0.48350764    -0.31000
N884        N  0.38559578  0.07756834  0.52791592     0.14000
H885        H  0.36444535  0.07604465  0.45671921     0.16600
C886        C  0.39105096  0.05498546  0.55925478    -0.31000
H887        H  0.39437687  0.05876274  0.59850641     0.16600
H888        H  0.29808925  0.99617296  0.57320162     0.16600
H889        H  0.43660265  0.98949898  0.44437411     0.16700
H890        H  0.30015943  0.01167949  0.42016646     0.16600
Zn891      Zn  0.48252206  0.44705691  0.62477296     1.49700
Zn892      Zn  0.43999803  0.48801590  0.35632916     1.49400
Zn893      Zn  0.41939819  0.39555496  0.66143655     1.49100
Zn894      Zn  0.48146879  0.42452564  0.40945976     1.49500
O895        O  0.46498172  0.44663905  0.35369298    -1.83600
O896        O  0.48211877  0.49531495  0.62989980    -0.74200
O897        O  0.39085498  0.48314550  0.33648874    -0.74100
O898        O  0.42161282  0.39019200  0.59187084    -0.73600
O899        O  0.46188925  0.52448775  0.32509474    -0.74300
O900        O  0.45947374  0.42139710  0.57217754    -0.73900
O901        O  0.37906197  0.41221576  0.68499824    -0.74400
O902        O  0.46270545  0.37845639  0.41547357    -0.73800
O903        O  0.44674233  0.50114880  0.42775036    -0.74600
O904        O  0.41922156  0.35246795  0.68096657    -0.74000
O905        O  0.47217426  0.46217360  0.45324204    -0.74400
O906        O  0.52758560  0.41718586  0.40570937    -0.74400
O907        O  0.52772512  0.43797587  0.63180311    -0.74100
C908        C  0.49013744  0.52920146  0.31329705     0.77600
C909        C  0.37332167  0.45847264  0.32843136     0.78100
C910        C  0.43185758  0.41721369  0.58591353     0.77100
C911        C  0.44240990  0.36286198  0.38849549     0.77500
C912        C  0.44712263  0.47315282  0.43829113     0.78600
C913        C  0.54930935  0.42885384  0.38076048     0.77700
Zn914      Zn  0.44205340  0.41561609  0.48126514     1.49700
Zn915      Zn  0.45250773  0.47500065  0.55278914     1.49400
Zn916      Zn  0.39463337  0.48208650  0.48364957     1.49100
Zn917      Zn  0.38015375  0.42489973  0.53831568     1.49500
O918        O  0.41826070  0.44987882  0.51410167    -1.83600
O919        O  0.49183716  0.41665293  0.49472985    -0.74200
O920        O  0.45231114  0.52201826  0.54323914    -0.74100
O921        O  0.39460571  0.46281421  0.41949979    -0.73600
O922        O  0.50021039  0.45967800  0.54144940    -0.74300
O923        O  0.42468932  0.42387857  0.41522465    -0.73900
O924        O  0.41081891  0.52581462  0.49471462    -0.74400
O925        O  0.33777478  0.43702886  0.51558636    -0.73800
O926        O  0.42931732  0.46873491  0.61633729    -0.74600
O927        O  0.35099661  0.48464745  0.49717318    -0.74000
O928        O  0.38581797  0.44112748  0.60713205    -0.74400
O929        O  0.37959417  0.37708422  0.52748555    -0.74400
O930        O  0.42575178  0.37240809  0.49487383    -0.74100
C931        C  0.51092097  0.43601076  0.51795566     0.77600
C932        C  0.43324368  0.53836942  0.52031865     0.78100
C933        C  0.42149578  0.45262514  0.41909710     0.77100
C934        C  0.33045012  0.46375779  0.50362003     0.77500
C935        C  0.41523542  0.44280540  0.60870711     0.78600
C936        C  0.40100559  0.36015916  0.51144309     0.77700
C937        C  0.38206883  0.10968552  0.54064145    -0.02700
C938        C  0.35431008  0.12370917  0.52859481    -0.05300
C939        C  0.35231452  0.15577307  0.53322519    -0.20400
C940        C  0.37821451  0.17454169  0.54898075     0.25400
C941        C  0.40563613  0.16032185  0.56331550    -0.17900
C942        C  0.40740679  0.12808899  0.55950585    -0.07900
C943        C  0.37584585  0.20870653  0.54850066    -0.18200
C944        C  0.40035294  0.22796902  0.54025966    -0.23000
C945        C  0.39883982  0.26193944  0.53370798     0.27400
C946        C  0.42652952  0.27827293  0.52341473    -0.19700
C947        C  0.42686669  0.30988988  0.51569332    -0.09400
C948        C  0.39942481  0.32624715  0.51761896    -0.09900
C949        C  0.37163522  0.31021112  0.52861043    -0.02900
C950        C  0.37126591  0.27835359  0.53646747    -0.18000
H951        H  0.33444855  0.10980288  0.51423173     0.11100
H952        H  0.33085431  0.16604370  0.52242301     0.11200
H953        H  0.42575910  0.17396784  0.57720678     0.10800
H954        H  0.42893950  0.11758221  0.56914378     0.12000
H955        H  0.35279127  0.21754169  0.55081616     0.12000
H956        H  0.42289622  0.21813730  0.53560257     0.13900
H957        H  0.44816566  0.26650666  0.52124065     0.10500
H958        H  0.44888547  0.32160344  0.50858174     0.12600
H959        H  0.35020942  0.32228158  0.53115360     0.09200
H960        H  0.34933146  0.26702973  0.54464942     0.11900
C961        C  0.43315912  0.33010506  0.39659193    -0.02700
C962        C  0.40169332  0.32070707  0.39010315    -0.05300
C963        C  0.39243604  0.28940481  0.38630760    -0.20400
C964        C  0.41436784  0.26642396  0.38775343     0.25400
C965        C  0.44586158  0.27572882  0.39696724    -0.17900
C966        C  0.45513526  0.30732624  0.40134343    -0.07900
C967        C  0.40305111  0.23351264  0.37782063    -0.18200
C968        C  0.42130932  0.21006270  0.36514913    -0.23000
C969        C  0.40917449  0.17773966  0.35302062     0.27400
C970        C  0.42823979  0.15321412  0.36314307    -0.19700
C971        C  0.41772257  0.12252909  0.35364294    -0.09400
C972        C  0.38798314  0.11545317  0.33293815    -0.09900
C973        C  0.36936833  0.13991755  0.32030418    -0.02900
C974        C  0.37978281  0.17081087  0.33041043    -0.18000
H975        H  0.38423770  0.33776332  0.38610107     0.11100
H976        H  0.36804665  0.28317077  0.37995021     0.11200
H977        H  0.46352129  0.25888858  0.39985844     0.10800
H978        H  0.47956254  0.31391458  0.40580057     0.12000
H979        H  0.37817749  0.22867706  0.37916057     0.12000
H980        H  0.44624884  0.21419054  0.36437831     0.13900
H981        H  0.45112548  0.15779125  0.37972841     0.10500
H982        H  0.43264844  0.10415264  0.36344876     0.12600
H983        H  0.34631568  0.13505451  0.30456738     0.09200
H984        H  0.36484606  0.18915470  0.32053546     0.11900
C985        C  0.29801926  0.47174125  0.49741189    -0.02700
C986        C  0.27417254  0.45589789  0.52140945    -0.05300
C987        C  0.24473886  0.46809903  0.52308787    -0.20400
C988        C  0.23916622  0.49613925  0.50098839     0.25400
C989        C  0.26209049  0.50986043  0.47226982    -0.17900
C990        C  0.29131878  0.49781919  0.47072222    -0.07900
C991        C  0.20987530  0.51122014  0.51034904    -0.18200
C992        C  0.20683171  0.54189343  0.50805469    -0.23000
C993        C  0.17643234  0.55434953  0.51650733     0.27400
C994        C  0.15900767  0.56397627  0.47648462    -0.19700
C995        C  0.12689820  0.56537409  0.47982424    -0.09400
C996        C  0.11206292  0.55666249  0.52307880    -0.09900
C997        C  0.13053700  0.55188882  0.56530593    -0.02900
C998        C  0.16252219  0.55045712  0.56182974    -0.18000
H999        H  0.27875926  0.43538742  0.54139276     0.11100
H1000       H  0.22691991  0.45669621  0.54415498     0.11200
H1001       H  0.25792907  0.53037726  0.45215422     0.10800
H1002       H  0.30910690  0.50975229  0.45027718     0.12000
H1003       H  0.19014209  0.49673428  0.52103377     0.12000
H1004       H  0.22563665  0.55745610  0.49752718     0.13900
H1005       H  0.16974312  0.56737780  0.44137082     0.10500
H1006       H  0.11369623  0.57074437  0.44725344     0.12600
H1007       H  0.12053078  0.54621537  0.59996604     0.09200
H1008       H  0.17607012  0.54361925  0.59329308     0.11900
C1009       C  0.11616554  0.47896922  0.35043016    -0.02700
C1010       C  0.13424379  0.49181799  0.39069607    -0.05300
C1011       C  0.16942414  0.48016280  0.64146170    -0.20400
C1012       C  0.18563611  0.47016020  0.68295231     0.25400
C1013       C  0.16795316  0.46090610  0.72321024    -0.17900
C1014       C  0.13525855  0.46183300  0.72196508    -0.07900
C1015       C  0.22076891  0.47049040  0.68325769    -0.18200
C1016       C  0.23806260  0.45184139  0.71074553    -0.23000
C1017       C  0.27292315  0.44994919  0.70959790     0.27400
C1018       C  0.28589877  0.42182152  0.72098903    -0.19700
C1019       C  0.31810174  0.41844029  0.72135464    -0.09400
C1020       C  0.33825663  0.45993292  0.32933068    -0.09900
C1021       C  0.32611725  0.47194484  0.70174426    -0.02900
C1022       C  0.29350338  0.47512156  0.69992829    -0.18000
H1023       H  0.12325417  0.50217742  0.42226294     0.11100
H1024       H  0.18215883  0.48740687  0.60978619     0.11200
H1025       H  0.17927977  0.45351516  0.75633830     0.10800
H1026       H  0.12294633  0.45457913  0.75397221     0.12000
H1027       H  0.23259319  0.48528747  0.65767464     0.12000
H1028       H  0.22596028  0.43519490  0.73301955     0.13900
H1029       H  0.27094397  0.40204696  0.72903204     0.10500
H1030       H  0.32693412  0.39605878  0.72909414     0.12600
H1031       H  0.33659013  0.50980555  0.33668385     0.09200
H1032       H  0.28449583  0.49731109  0.69164718     0.11900
C1033       C  0.03959077  0.96295737  0.51546012    -0.02700
C1034       C  0.04872607  0.98785549  0.54806114    -0.05300
C1035       C  0.08004762  0.99798653  0.55250628    -0.20400
C1036       C  0.10246533  0.98420091  0.52313466     0.25400
C1037       C  0.09312930  0.95974901  0.48997166    -0.17900
C1038       C  0.06217265  0.94949313  0.48591675    -0.07900
C1039       C  0.13567521  0.99451612  0.52863345    -0.18200
C1040       C  0.15498463  0.99288720  0.49036719    -0.23000
C1041       C  0.18921228  0.99877572  0.49327297     0.27400
C1042       C  0.20571965  0.99558415  0.44960228    -0.19700
C1043       C  0.23807252  0.99824584  0.45018932    -0.09400
C1044       C  0.25495398  0.00390037  0.49465781    -0.09900
C1045       C  0.23835129  0.00830504  0.53825206    -0.02900
C1046       C  0.20590577  0.00566904  0.53766644    -0.18000
H1047       H  0.03180719  0.99913080  0.57055155     0.11100
H1048       H  0.08675635  0.01673618  0.57860315     0.11200
H1049       H  0.10981819  0.94777707  0.46797203     0.10800
H1050       H  0.05612652  0.93033954  0.46022102     0.12000
H1051       H  0.14389413  0.00335449  0.56460944     0.12000
H1052       H  0.14518709  0.98602149  0.45423958     0.13900
H1053       H  0.19355930  0.99026443  0.41479686     0.10500
H1054       H  0.24972794  0.99492341  0.41578842     0.12600
H1055       H  0.25028535  0.01348503  0.57315426     0.09200
H1056       H  0.19434729  0.00845193  0.57226237     0.11900
C1057       C  0.96106693  0.59913277  0.52074557    -0.02700
C1058       C  0.98957954  0.61578488  0.52743090    -0.05300
C1059       C  0.99125480  0.64798114  0.52476846    -0.20400
C1060       C  0.96455597  0.66418911  0.51430103     0.25400
C1061       C  0.93581521  0.64735308  0.50839863    -0.17900
C1062       C  0.93419955  0.61507372  0.51118841    -0.07900
C1063       C  0.96762336  0.69842883  0.50926458    -0.18200
C1064       C  0.94765737  0.71376841  0.48146756    -0.23000
C1065       C  0.94893254  0.74771109  0.47418010     0.27400
C1066       C  0.92169379  0.76032380  0.45672441    -0.19700
C1067       C  0.92060622  0.79165308  0.44830425    -0.09400
C1068       C  0.94694454  0.81171380  0.45609031    -0.09900
C1069       C  0.97470114  0.79924943  0.47285687    -0.02900
C1070       C  0.97570421  0.76741233  0.48197568    -0.18000
H1071       H  0.01063380  0.60364636  0.53396358     0.11100
H1072       H  0.01361028  0.66018594  0.52967733     0.11200
H1073       H  0.91446503  0.65891752  0.50188417     0.10800
H1074       H  0.91209861  0.60249231  0.50561591     0.12000
H1075       H  0.98735258  0.71086697  0.52732055     0.12000
H1076       H  0.92861084  0.70072263  0.46259067     0.13900
H1077       H  0.90081410  0.74585346  0.44990150     0.10500
H1078       H  0.89875866  0.80018818  0.43533850     0.12600
H1079       H  0.99524928  0.81412003  0.47989812     0.09200
H1080       H  0.99734862  0.75838688  0.49461746     0.11900
C1081       C  0.27687580  0.91913108  0.63797164    -0.02700
C1082       C  0.26132628  0.90473787  0.67638939    -0.05300
C1083       C  0.22942430  0.89791580  0.67275979    -0.20400
C1084       C  0.21237580  0.90465337  0.63032137     0.25400
C1085       C  0.22815299  0.91684902  0.59033296    -0.17900
C1086       C  0.26000744  0.92400887  0.59412834    -0.07900
C1087       C  0.17805568  0.90302071  0.63210698    -0.18200
C1088       C  0.15898532  0.90344858  0.59236423    -0.23000
C1089       C  0.12558740  0.90882116  0.59765658     0.27400
C1090       C  0.11572980  0.93027511  0.63348804    -0.19700
C1091       C  0.08440906  0.93632532  0.63730482    -0.09400
C1092       C  0.06222022  0.92094091  0.60559277    -0.09900
C1093       C  0.07202024  0.89927520  0.56992707    -0.02900
C1094       C  0.10357621  0.89371079  0.56541254    -0.18000
H1095       H  0.27352286  0.89988966  0.71020946     0.11100
H1096       H  0.21779346  0.88850810  0.70408990     0.11200
H1097       H  0.21579582  0.92296134  0.55731624     0.10800
H1098       H  0.27067270  0.93519575  0.56362536     0.12000
H1099       H  0.16797210  0.90317561  0.66839093     0.12000
H1100       H  0.16781072  0.90038385  0.55552702     0.13900
H1101       H  0.13233102  0.94295885  0.65791341     0.10500
H1102       H  0.07758604  0.95314647  0.66508590     0.12600
H1103       H  0.05540439  0.88729781  0.54467104     0.09200
H1104       H  0.11079315  0.87747603  0.53704079     0.11900
C1105       C  0.01674818  0.61872341  0.69600024    -0.02700
C1106       C  0.03157984  0.63852927  0.31960016    -0.05300
C1107       C  0.02689591  0.67021390  0.31642673    -0.20400
C1108       C  0.00595159  0.68505665  0.34728994     0.25400
C1109       C  0.99085943  0.66770751  0.38303381    -0.17900
C1110       C  0.99609650  0.63615653  0.38701860    -0.07900
C1111       C  0.00111174  0.71872991  0.34211987    -0.18200
C1112       C  0.97406115  0.73219204  0.35169899    -0.23000
C1113       C  0.96919002  0.76588595  0.34627831     0.27400
C1114       C  0.93903553  0.77587897  0.33705255    -0.19700
C1115       C  0.93342107  0.80749546  0.33428353    -0.09400
C1116       C  0.95449821  0.82582737  0.67666021    -0.09900
C1117       C  0.98807216  0.81985408  0.34933888    -0.02900
C1118       C  0.99367883  0.78833601  0.35240813    -0.18000
H1119       H  0.04710275  0.62752153  0.29426424     0.11100
H1120       H  0.03904660  0.68301440  0.28881448     0.11200
H1121       H  0.97500495  0.67844458  0.40788926     0.10800
H1122       H  0.98356351  0.62325506  0.41406474     0.12000
H1123       H  0.02001610  0.73245884  0.32715093     0.12000
H1124       H  0.95422100  0.71782095  0.36204164     0.13900
H1125       H  0.91972275  0.75915879  0.33220912     0.10500
H1126       H  0.91008530  0.81455758  0.32646029     0.12600
H1127       H  0.00737068  0.83663617  0.35361933     0.09200
H1128       H  0.01709952  0.78173512  0.36054003     0.11900
C1129       C  0.43020247  0.78868009  0.49597146    -0.02700
C1130       C  0.41174962  0.77870202  0.53485499    -0.05300
C1131       C  0.40801674  0.74718258  0.54417257    -0.20400
C1132       C  0.42296251  0.72501097  0.51527161     0.25400
C1133       C  0.44001563  0.73478527  0.47489305    -0.17900
C1134       C  0.44361925  0.76615661  0.46541193    -0.07900
C1135       C  0.41991691  0.69175467  0.52680699    -0.18200
C1136       C  0.44282794  0.67204156  0.51825645    -0.23000
C1137       C  0.43982503  0.63798746  0.52401343     0.27400
C1138       C  0.46685681  0.62091557  0.52615181    -0.19700
C1139       C  0.46501389  0.58853414  0.52676860    -0.09400
C1140       C  0.43604595  0.57256966  0.52383334    -0.09900
C1141       C  0.40901148  0.58960231  0.52241861    -0.02900
C1142       C  0.41081115  0.62189270  0.52278110    -0.18000
H1143       H  0.40098960  0.79536700  0.55897794     0.11100
H1144       H  0.39429487  0.74018712  0.57500748     0.11200
H1145       H  0.45091764  0.71821856  0.45076914     0.10800
H1146       H  0.45834040  0.77272426  0.43557474     0.12000
H1147       H  0.39869152  0.68371882  0.54375256     0.12000
H1148       H  0.46503951  0.68125625  0.50606336     0.13900
H1149       H  0.48952802  0.63265458  0.52648581     0.10500
H1150       H  0.48618684  0.57596775  0.52779932     0.12600
H1151       H  0.38632417  0.57784182  0.52041002     0.09200
H1152       H  0.38942535  0.63393116  0.51993701     0.11900
C1153       C  0.80544573  0.91489247  0.43469428    -0.02700
C1154       C  0.79227066  0.88520334  0.42368044    -0.05300
C1155       C  0.76121176  0.87828767  0.43210705    -0.20400
C1156       C  0.74252047  0.90061052  0.45381275     0.25400
C1157       C  0.75522188  0.93084535  0.46268135    -0.17900
C1158       C  0.78647807  0.93801234  0.45302143    -0.07900
C1159       C  0.71009720  0.89298945  0.46824647    -0.18200
C1160       C  0.69792484  0.86382607  0.46921588    -0.23000
C1161       C  0.66533360  0.85679786  0.48123274     0.27400
C1162       C  0.65089995  0.87274055  0.51966227    -0.19700
C1163       C  0.61944453  0.86686539  0.52792714    -0.09400
C1164       C  0.60186125  0.84541708  0.49740813    -0.09900
C1165       C  0.61678738  0.82832828  0.46079337    -0.02900
C1166       C  0.64843424  0.83367697  0.45325608    -0.18000
H1167       H  0.80619088  0.86695641  0.40882856     0.11100
H1168       H  0.75251883  0.85518084  0.42187612     0.11200
H1169       H  0.74122013  0.94867605  0.47859601     0.10800
H1170       H  0.79613335  0.96104482  0.46220020     0.12000
H1171       H  0.69571265  0.91207414  0.47866071     0.12000
H1172       H  0.71121102  0.84415770  0.45848965     0.13900
H1173       H  0.66373570  0.89011521  0.54256168     0.10500
H1174       H  0.60839860  0.88063284  0.55591810     0.12600
H1175       H  0.60357733  0.81193547  0.43664347     0.09200
H1176       H  0.65938133  0.82089537  0.42383697     0.11900
C1177       C  0.50068271  0.56033932  0.29971181    -0.02700
C1178       C  0.44487399  0.56196310  0.67786038    -0.05300
C1179       C  0.44435394  0.59403800  0.67756636    -0.20400
C1180       C  0.46939423  0.61151856  0.65967555     0.25400
C1181       C  0.49519995  0.59597991  0.64167590    -0.17900
C1182       C  0.49556506  0.56353412  0.64153050    -0.07900
C1183       C  0.46748730  0.64573323  0.66251861    -0.18200
C1184       C  0.48414307  0.66540992  0.63528602    -0.23000
C1185       C  0.48128120  0.69969907  0.63780266     0.27400
C1186       C  0.50143098  0.71782873  0.60981318    -0.19700
C1187       C  0.50096704  0.75008869  0.61290454    -0.09400
C1188       C  0.52824755  0.77167278  0.32339323    -0.09900
C1189       C  0.45951982  0.74707661  0.67105332    -0.02900
C1190       C  0.45969272  0.71483741  0.66758624    -0.18000
H1191       H  0.42503347  0.54926595  0.69192500     0.11100
H1192       H  0.42420794  0.60527396  0.69164692     0.11200
H1193       H  0.51525274  0.60865169  0.62847007     0.10800
H1194       H  0.51564852  0.55197597  0.62799623     0.12000
H1195       H  0.45057494  0.65455696  0.68758453     0.12000
H1196       H  0.50067062  0.65617199  0.60974518     0.13900
H1197       H  0.51803514  0.70701164  0.58609017     0.10500
H1198       H  0.51740381  0.76334881  0.59185624     0.12600
H1199       H  0.44304811  0.75805765  0.69476621     0.09200
H1200       H  0.44307150  0.70237430  0.68914474     0.11900
C1201       C  0.60977332  0.90262285  0.66906512    -0.02700
C1202       C  0.62092394  0.92624275  0.63934157    -0.05300
C1203       C  0.65256434  0.93405386  0.63833717    -0.20400
C1204       C  0.67379010  0.91825404  0.66656860     0.25400
C1205       C  0.66274122  0.89519319  0.69747676    -0.17900
C1206       C  0.63094609  0.88748729  0.69874828    -0.07900
C1207       C  0.70715932  0.92696921  0.66349254    -0.18200
C1208       C  0.72951677  0.90636261  0.66698002    -0.23000
C1209       C  0.76318950  0.91431328  0.66271085     0.27400
C1210       C  0.78454390  0.89240831  0.67631447    -0.19700
C1211       C  0.81643240  0.89942505  0.67582562    -0.09400
C1212       C  0.82757997  0.92870574  0.66228477    -0.09900
C1213       C  0.80638817  0.94996866  0.64583596    -0.02900
C1214       C  0.77455061  0.94287856  0.64588732    -0.18000
H1215       H  0.60514953  0.93876756  0.61684566     0.11100
H1216       H  0.66056266  0.95215546  0.61473912     0.11200
H1217       H  0.67854738  0.88330165  0.72088843     0.10800
H1218       H  0.62298835  0.86927677  0.72209053     0.12000
H1219       H  0.71286122  0.95087514  0.65614332     0.12000
H1220       H  0.72290447  0.88245315  0.67359599     0.13900
H1221       H  0.77652375  0.87004315  0.68857765     0.10500
H1222       H  0.83233776  0.88226665  0.68734838     0.12600
H1223       H  0.81435811  0.97245718  0.63402470     0.09200
H1224       H  0.75928391  0.96011047  0.63306419     0.11900
C1225       C  0.90494865  0.04622588  0.51053629    -0.02700
C1226       C  0.88422860  0.05724500  0.54541060    -0.05300
C1227       C  0.87863132  0.08894547  0.54980911    -0.20400
C1228       C  0.89331251  0.11020893  0.51908856     0.25400
C1229       C  0.91436117  0.09894050  0.48448010    -0.17900
C1230       C  0.91979232  0.06732271  0.48000521    -0.07900
C1231       C  0.88667894  0.14383217  0.52512289    -0.18200
C1232       C  0.89166323  0.16449233  0.48982040    -0.23000
C1233       C  0.88570056  0.19831680  0.49436921     0.27400
C1234       C  0.89714667  0.21739117  0.45772461    -0.19700
C1235       C  0.89225889  0.24910799  0.45937791    -0.09400
C1236       C  0.87533663  0.26283247  0.49729791    -0.09900
C1237       C  0.86396806  0.24393443  0.53435386    -0.02900
C1238       C  0.86897971  0.21203938  0.53290883    -0.18000
H1239       H  0.87197458  0.04130359  0.56856346     0.11100
H1240       H  0.86248402  0.09685617  0.57700550     0.11200
H1241       H  0.92700043  0.11431497  0.46101497     0.10800
H1242       H  0.93557053  0.05921591  0.45234713     0.12000
H1243       H  0.87698635  0.15137810  0.55975264     0.12000
H1244       H  0.90069651  0.15640152  0.45495882     0.13900
H1245       H  0.91034520  0.20776603  0.42780262     0.10500
H1246       H  0.90251816  0.26312262  0.43161668     0.12600
H1247       H  0.85099718  0.25378414  0.56429100     0.09200
H1248       H  0.85944732  0.19843256  0.56181382     0.11900
C1249       C  0.77078359  0.41135066  0.50901889    -0.02700
C1250       C  0.75847721  0.42846535  0.54868726    -0.05300
C1251       C  0.72637203  0.43351220  0.55153792    -0.20400
C1252       C  0.70467857  0.42109539  0.51566034     0.25400
C1253       C  0.71672887  0.40353511  0.47600347    -0.17900
C1254       C  0.74919159  0.39900893  0.47251443    -0.07900
C1255       C  0.67047045  0.42874505  0.52045062    -0.18200
C1256       C  0.64533951  0.41174432  0.50122447    -0.23000
C1257       C  0.61127718  0.41913388  0.50860891     0.27400
C1258       C  0.58832673  0.39491971  0.50513412    -0.19700
C1259       C  0.55634222  0.40050114  0.50854666    -0.09400
C1260       C  0.54565775  0.43061591  0.51640075    -0.09900
C1261       C  0.56855110  0.45497909  0.52068599    -0.02900
C1262       C  0.60072645  0.44939374  0.51654937    -0.18000
H1263       H  0.77386755  0.43851817  0.57752374     0.11100
H1264       H  0.71838372  0.44722928  0.58252551     0.11200
H1265       H  0.70123090  0.39380700  0.44708970     0.10800
H1266       H  0.75732512  0.38550289  0.44144538     0.12000
H1267       H  0.66582850  0.44885236  0.54378020     0.12000
H1268       H  0.64968719  0.39026651  0.48113120     0.13900
H1269       H  0.59516026  0.37133516  0.49902761     0.10500
H1270       H  0.53981220  0.38098863  0.50505058     0.12600
H1271       H  0.56154077  0.47853643  0.52619037     0.09200
H1272       H  0.61723521  0.46891665  0.51871254     0.11900
C1273       C  0.93740390  0.28145973  0.65939634    -0.02700
C1274       C  0.90480480  0.26931865  0.33306956    -0.05300
C1275       C  0.90415267  0.23722231  0.32590508    -0.20400
C1276       C  0.93089416  0.22183962  0.31244711     0.25400
C1277       C  0.95845101  0.23984327  0.30543963    -0.17900
C1278       C  0.95905113  0.27225199  0.31287132    -0.07900
C1279       C  0.92806270  0.18730919  0.30547570    -0.18200
C1280       C  0.95189529  0.16848396  0.29841721    -0.23000
C1281       C  0.94843158  0.13389544  0.29233150     0.27400
C1282       C  0.97409501  0.11764719  0.27631229    -0.19700
C1283       C  0.97275810  0.08532697  0.27168822    -0.09400
C1284       C  0.94790521  0.06256486  0.61627584    -0.09900
C1285       C  0.91966530  0.08421195  0.29819137    -0.02900
C1286       C  0.92108255  0.11665563  0.30330962    -0.18000
H1287       H  0.94690729  0.27675488  0.73755684     0.11100
H1288       H  0.88246242  0.22432807  0.33085773     0.11200
H1289       H  0.97945910  0.22929557  0.29377757     0.10800
H1290       H  0.98025379  0.28572354  0.30699917     0.12000
H1291       H  0.90472695  0.17713173  0.30630960     0.12000
H1292       H  0.97523881  0.17857064  0.29669852     0.13900
H1293       H  0.99548331  0.13002752  0.26761041     0.10500
H1294       H  0.99319586  0.07375489  0.25962895     0.12600
H1295       H  0.89851850  0.07166882  0.30757660     0.09200
H1296       H  0.90082414  0.12777913  0.31677050     0.11900
C1297       C  0.58069846  0.41685683  0.38330842    -0.02700
C1298       C  0.59323217  0.43205215  0.63507860    -0.05300
C1299       C  0.62479844  0.42724055  0.64211968    -0.20400
C1300       C  0.63499176  0.39721703  0.64718714     0.25400
C1301       C  0.61361217  0.37195329  0.64220364    -0.17900
C1302       C  0.58235832  0.37667341  0.63448411    -0.07900
C1303       C  0.66822875  0.39222721  0.65386744    -0.18200
C1304       C  0.67863941  0.36745373  0.67628887    -0.23000
C1305       C  0.71106225  0.35887080  0.67234620     0.27400
C1306       C  0.72582671  0.34449825  0.71109209    -0.19700
C1307       C  0.75724133  0.33815638  0.70828883    -0.09400
C1308       C  0.77346535  0.33418426  0.33639618    -0.09900
C1309       C  0.75826131  0.35802754  0.62627445    -0.02900
C1310       C  0.72710591  0.36421947  0.62909766    -0.18000
H1311       H  0.58559931  0.45546771  0.63300307     0.11100
H1312       H  0.64117740  0.44691920  0.64451881     0.11200
H1313       H  0.62096958  0.34842760  0.64364052     0.10800
H1314       H  0.56640359  0.35667245  0.63174965     0.12000
H1315       H  0.68450445  0.40869569  0.63814859     0.12000
H1316       H  0.66302126  0.35280166  0.69687585     0.13900
H1317       H  0.71340484  0.33932748  0.74415076     0.10500
H1318       H  0.76857390  0.32818087  0.73941262     0.12600
H1319       H  0.77002816  0.36431239  0.59330268     0.09200
H1320       H  0.71571125  0.37370288  0.59756609     0.11900
C1321       C  0.88041708  0.37500715  0.94895020     0.30500
C1322       C  0.88416017  0.37475282  0.72217902     0.30500
C1323       C  0.88922976  0.40544700  0.97841620    -0.05700
C1324       C  0.84797401  0.36642757  0.97048385    -0.06500
C1325       C  0.90166808  0.35313395  0.97604597    -0.06300
C1326       C  0.88663243  0.40693891  0.69927110    -0.05700
C1327       C  0.85494176  0.36071783  0.69483689    -0.06500
C1328       C  0.90981513  0.35746138  0.69441110    -0.06300
C1329       C  0.90252761  0.43364112  0.71638244    -0.31700
N1330       N  0.90973776  0.45057209  0.00771968     0.14800
C1331       C  0.90185604  0.43356977  0.96595685    -0.31700
H1332       H  0.90702047  0.44012002  0.92905882     0.16700
C1333       C  0.82553935  0.35199751  0.70859731    -0.30700
N1334       N  0.80745063  0.34607526  0.66747506     0.13500
C1335       C  0.81903705  0.36910547  0.94905156    -0.30700
C1336       C  0.92263839  0.32976248  0.70520020    -0.31000
N1337       N  0.90290856  0.30349608  0.99085357     0.14000
H1338       H  0.92228425  0.32016716  0.74117732     0.16600
C1339       C  0.91011714  0.32469609  0.95783144    -0.31000
H1340       H  0.91575141  0.31913989  0.92008911     0.16600
H1341       H  0.81360952  0.36676101  0.91008850     0.16600
H1342       H  0.91009082  0.43840173  0.75407524     0.16700
H1343       H  0.81719503  0.35330460  0.74578010     0.16600
C1344       C  0.88411003  0.37427372  0.78294629     0.30500
C1345       C  0.88209418  0.37495642  0.88775482     0.30500
C1346       C  0.91532480  0.38050774  0.81209046    -0.05700
C1347       C  0.86365561  0.39823661  0.80857001    -0.06500
C1348       C  0.87216579  0.34427900  0.80676074    -0.06300
C1349       C  0.91442236  0.38067383  0.86435986    -0.05700
C1350       C  0.86311993  0.39929116  0.86059584    -0.06500
C1351       C  0.87057434  0.34455003  0.85852544    -0.06300
C1352       C  0.94140536  0.39629147  0.88145649    -0.31700
N1353       N  0.95818432  0.40601474  0.84270391     0.14800
C1354       C  0.94271653  0.39590343  0.80054801    -0.31700
H1355       H  0.94905907  0.40209873  0.76395113     0.16700
C1356       C  0.83796039  0.41643918  0.87316866    -0.30700
N1357       N  0.82172943  0.42313199  0.83176999     0.13500
C1358       C  0.83779373  0.41283335  0.79243992    -0.30700
C1359       C  0.86296617  0.31428050  0.87023841    -0.31000
N1360       N  0.86202545  0.29554990  0.82863163     0.14000
H1361       H  0.86058853  0.30616263  0.90699338     0.16600
C1362       C  0.86667985  0.31405930  0.78987178    -0.31000
H1363       H  0.86774735  0.30610420  0.75184599     0.16600
H1364       H  0.82971026  0.41308494  0.75456798     0.16600
H1365       H  0.94675277  0.40269299  0.91953046     0.16700
H1366       H  0.82999060  0.42066023  0.91003944     0.16600
C1367       C  0.49782456  0.87420626  0.71660216     0.30500
C1368       C  0.49347869  0.87624635  0.94213659     0.30500
C1369       C  0.48058264  0.90112341  0.69450356    -0.05700
C1370       C  0.52971102  0.87929289  0.69113091    -0.06500
C1371       C  0.48397970  0.84601987  0.68405258    -0.06300
C1372       C  0.48813306  0.90805038  0.96895159    -0.05700
C1373       C  0.52275964  0.86610318  0.97002304    -0.06500
C1374       C  0.46805481  0.85581981  0.96514983    -0.06300
C1375       C  0.47284935  0.93390830  0.95496653    -0.31700
N1376       N  0.46290126  0.94972593  0.99562025     0.14800
C1377       C  0.46819892  0.92829455  0.71261410    -0.31700
H1378       H  0.46847759  0.93690732  0.75049529     0.16700
C1379       C  0.55377787  0.86619018  0.95841705    -0.30700
N1380       N  0.57134199  0.86654668  0.00056893     0.13500
C1381       C  0.56054424  0.88300879  0.70594227    -0.30700
C1382       C  0.44963963  0.83105312  0.94755238    -0.31000
N1383       N  0.48097236  0.79822607  0.64959752     0.14000
H1384       H  0.44764543  0.82309747  0.90942781     0.16600
C1385       C  0.47744664  0.81515061  0.69206946    -0.31000
H1386       H  0.47187742  0.80532788  0.72674304     0.16600
H1387       H  0.56990088  0.87998482  0.74258466     0.16600
H1388       H  0.46668394  0.93882463  0.91748283     0.16700
H1389       H  0.56297462  0.86918356  0.92218689     0.16600
C1390       C  0.49447786  0.87438431  0.88212853     0.30500
C1391       C  0.49639063  0.87322991  0.77767168     0.30500
C1392       C  0.46348764  0.87799759  0.85404409    -0.05700
C1393       C  0.51526269  0.89930944  0.85853133    -0.06500
C1394       C  0.50560675  0.84432156  0.85623709    -0.06300
C1395       C  0.46383694  0.87713352  0.80202038    -0.05700
C1396       C  0.51554370  0.89936941  0.80688162    -0.06500
C1397       C  0.50785998  0.84403194  0.80449781    -0.06300
C1398       C  0.43508278  0.88781597  0.78746750    -0.31700
N1399       N  0.41861584  0.89610726  0.82796145     0.14800
C1400       C  0.43553383  0.88915758  0.86836010    -0.31700
H1401       H  0.42939876  0.89456235  0.90586977     0.16700
C1402       C  0.53822026  0.92105024  0.79536405    -0.30700
N1403       N  0.55421021  0.93130216  0.83691179     0.13500
C1404       C  0.53921081  0.91921909  0.87574598    -0.30700
C1405       C  0.51544315  0.81409420  0.79070850    -0.31000
N1406       N  0.51376593  0.79531418  0.82994317     0.14000
H1407       H  0.52103738  0.80642534  0.75396732     0.16600
C1408       C  0.50858970  0.81407570  0.87024194    -0.31000
H1409       H  0.50480518  0.80623337  0.90690840     0.16600
H1410       H  0.54665894  0.92248640  0.91383935     0.16600
H1411       H  0.42767924  0.89151709  0.75012664     0.16700
H1412       H  0.54421236  0.92723757  0.75880692     0.16600
Zn1413     Zn  0.95668396  0.90543590  0.92612647     1.49700
Zn1414     Zn  0.98262960  0.97457768  0.64957834     1.49400
Zn1415     Zn  0.89942023  0.95955313  0.93830401     1.49100
Zn1416     Zn  0.92663468  0.92313024  0.69981238     1.49500
O1417       O  0.93831874  0.93956714  0.96749539    -1.83600
O1418       O  0.00485683  0.91105653  0.92985295    -0.74200
O1419       O  0.97396130  0.01495044  0.61641943    -0.74100
O1420       O  0.88477821  0.93369238  0.86880054    -0.73600
O1421       O  0.02210707  0.95297629  0.63268443    -0.74300
O1422       O  0.92752637  0.90019401  0.86324230    -0.73900
O1423       O  0.90834820  0.00674627  0.95328878    -0.74400
O1424       O  0.87969324  0.92101093  0.68936602    -0.73800
O1425       O  0.98961889  0.99146419  0.72396303    -0.74600
O1426       O  0.86056123  0.94946610  0.97287852    -0.74000
O1427       O  0.95403690  0.96158446  0.76906747    -0.75600
O1428       O  0.93959841  0.87760072  0.69683476    -0.74400
O1429       O  0.95195578  0.86537032  0.95598577    -0.74100
C1430       C  0.02260227  0.93335908  0.94793565     0.77600
C1431       C  0.93346417  0.02341127  0.95010418     0.78100
C1432       C  0.90084908  0.90922304  0.88496189     0.77100
C1433       C  0.85312270  0.92888721  0.00275837     0.77500
C1434       C  0.97525984  0.98313252  0.76226922     0.78600
C1435       C  0.94474767  0.85700331  0.99829693     0.77700
Zn1436     Zn  0.90121135  0.96513035  0.75692571     1.49700
Zn1437     Zn  0.93008898  0.95020263  0.86916653     1.49400
Zn1438     Zn  0.88283403  0.89458878  0.80201502     1.49100
Zn1439     Zn  0.95560923  0.90961136  0.77406163     1.49500
O1440       O  0.91613682  0.93010850  0.79777483    -1.83600
O1441       O  0.90603796  0.00626175  0.78829196    -0.74200
O1442       O  0.90227012  0.90888505  0.92771307    -0.74100
O1443       O  0.84247508  0.91304679  0.78397282    -0.73600
O1444       O  0.91032142  0.99411743  0.86610732    -0.74300
O1445       O  0.85316512  0.96073606  0.75819948    -0.73900
O1446       O  0.87254344  0.87648827  0.87183385    -0.74400
O1447       O  0.94742625  0.86190186  0.78239457    -0.73800
O1448       O  0.97772777  0.95799040  0.86788639    -0.74600
O1449       O  0.89626640  0.85482065  0.76931309    -0.74000
O1450       O  0.99193395  0.91959932  0.81788016    -0.74400
O1451       O  0.97314447  0.93522046  0.71113409    -0.74400
O1452       O  0.93368314  0.97208508  0.70069248    -0.74100
C1453       C  0.90532146  0.01384888  0.83334588     0.77600
C1454       C  0.88350584  0.88586333  0.91410508     0.78100
C1455       C  0.83378803  0.93959287  0.77173596     0.77100
C1456       C  0.92291973  0.84398942  0.77808331     0.77500
C1457       C  0.99865654  0.94363658  0.84470343     0.78600
C1458       C  0.95825748  0.96116023  0.72658041     0.77700
C1459       C  0.00812856  0.50650386  0.96474310     0.30500
C1460       C  0.01313671  0.50456987  0.73633663     0.30500
C1461       C  0.97570995  0.50094956  0.98807631    -0.05700
C1462       C  0.02714185  0.48268172  0.99252530    -0.06500
C1463       C  0.01928220  0.53693393  0.99325223    -0.06300
C1464       C  0.98245522  0.49394027  0.70851484    -0.05700
C1465       C  0.03706966  0.48468817  0.70754431    -0.06500
C1466       C  0.01943088  0.53640736  0.71298008    -0.06300
C1467       C  0.95427926  0.48080350  0.72167047    -0.31700
N1468       N  0.93204749  0.47563167  0.01008356     0.14800
C1469       C  0.94895749  0.48498260  0.97119223    -0.31700
H1470       H  0.94415418  0.47773639  0.93327811     0.16700
C1471       C  0.06686746  0.47620931  0.72035944    -0.30700
N1472       N  0.08496755  0.47428517  0.67993807     0.13500
C1473       C  0.05541486  0.47082066  0.98136205    -0.30700
C1474       C  0.02274239  0.56675400  0.73075657    -0.31000
N1475       N  0.02042490  0.58627119  0.02057783     0.14000
H1476       H  0.02295358  0.57440996  0.76909008     0.16600
C1477       C  0.02180540  0.56728999  0.97981644    -0.31000
H1478       H  0.02137333  0.57508051  0.94255435     0.16600
H1479       H  0.06555874  0.47009510  0.94544239     0.16600
H1480       H  0.94771917  0.47591079  0.75871005     0.16700
H1481       H  0.07533858  0.47402204  0.75759124     0.16600
C1482       C  0.01216352  0.50447680  0.79786185     0.30500
C1483       C  0.01003026  0.50570929  0.90320854     0.30500
C1484       C  0.00765232  0.47291373  0.82294866    -0.05700
C1485       C  0.04090183  0.51870824  0.82738628    -0.06500
C1486       C  0.98601022  0.52268227  0.82265787    -0.06300
C1487       C  0.00631303  0.47361720  0.87532988    -0.05700
C1488       C  0.04033850  0.51861680  0.87957140    -0.06500
C1489       C  0.98524612  0.52384590  0.87503167    -0.06300
C1490       C  0.99068011  0.44657614  0.88737585    -0.31700
N1491       N  0.98197703  0.42979821  0.84563820     0.14800
C1492       C  0.99282043  0.44535687  0.80660703    -0.31700
H1493       H  0.98747699  0.43887702  0.76855856     0.16700
C1494       C  0.07115302  0.52180055  0.89543978    -0.30700
N1495       N  0.08987366  0.52407613  0.85595518     0.13500
C1496       C  0.07139651  0.52389098  0.81494094    -0.30700
C1497       C  0.97090486  0.55090527  0.88788630    -0.31000
N1498       N  0.96311585  0.56596297  0.84674315     0.14000
H1499       H  0.96894304  0.56034306  0.92496268     0.16600
C1500       C  0.97103726  0.54817090  0.80727294    -0.31000
H1501       H  0.96957613  0.55525948  0.76977450     0.16600
H1502       H  0.07993664  0.52449460  0.77801740     0.16600
H1503       H  0.98329332  0.44133145  0.92385469     0.16700
H1504       H  0.07952352  0.52029888  0.93286797     0.16600
C1505       C  0.36018352  0.98749039  0.71689761     0.30500
C1506       C  0.36307841  0.99374615  0.94317753     0.30500
C1507       C  0.39320219  0.99109960  0.69717007    -0.05700
C1508       C  0.34717942  0.95974230  0.68398661    -0.06500
C1509       C  0.34401903  0.01441111  0.69308894    -0.06300
C1510       C  0.39490209  0.99101497  0.96957614    -0.05700
C1511       C  0.34300548  0.97051368  0.97157038    -0.06500
C1512       C  0.35278907  0.02490488  0.96707219    -0.06300
C1513       C  0.42200074  0.97804198  0.95507226    -0.31700
N1514       N  0.43929100  0.97170882  0.99547545     0.14800
C1515       C  0.41859672  0.97593372  0.71412250    -0.31700
H1516       H  0.42132585  0.96659144  0.74993072     0.16700
C1517       C  0.31807315  0.95099731  0.95809188    -0.30700
N1518       N  0.30283962  0.94275627  0.99903641     0.13500
C1519       C  0.32072741  0.94162277  0.69018795    -0.30700
C1520       C  0.35029663  0.05438617  0.95023216    -0.31000
N1521       N  0.33731323  0.06340228  0.67410131     0.14000
H1522       H  0.35144903  0.06071099  0.91224377     0.16600
C1523       C  0.33910987  0.04381506  0.71150621    -0.31000
H1524       H  0.34220693  0.05132437  0.74966576     0.16600
H1525       H  0.30902233  0.93986293  0.72476543     0.16600
H1526       H  0.42715363  0.97093267  0.91780290     0.16700
H1527       H  0.30965112  0.94598314  0.92076313     0.16600
C1528       C  0.36193692  0.98967126  0.88248613     0.30500
C1529       C  0.35920949  0.98646630  0.77770187     0.30500
C1530       C  0.36728477  0.95747010  0.85626329    -0.05700
C1531       C  0.33128091  0.99815777  0.85660162    -0.06500
C1532       C  0.38552937  0.01013470  0.85581625    -0.06300
C1533       C  0.36594796  0.95596836  0.80374361    -0.05700
C1534       C  0.32950757  0.99610155  0.80454410    -0.06500
C1535       C  0.38386906  0.00878265  0.80396583    -0.06300
C1536       C  0.38161490  0.93009166  0.78876087    -0.31700
N1537       N  0.39351318  0.91648051  0.82880408     0.14800
C1538       C  0.38426351  0.93257954  0.86972194    -0.31700
H1539       H  0.39196886  0.92860318  0.90684974     0.16700
C1540       C  0.29821114  0.99607458  0.79174031    -0.30700
N1541       N  0.28146049  0.99876496  0.83347026     0.13500
C1542       C  0.30154066  0.00056928  0.87272592    -0.30700
C1543       C  0.39884957  0.03523277  0.78917834    -0.31000
N1544       N  0.40927444  0.05237359  0.82913493     0.14000
H1545       H  0.39844058  0.04367752  0.75242536     0.16600
C1546       C  0.40208378  0.03700405  0.86990028    -0.31000
H1547       H  0.40486587  0.04682383  0.90696178     0.16600
H1548       H  0.29474142  0.00110420  0.91076254     0.16600
H1549       H  0.38712829  0.92401922  0.75115014     0.16700
H1550       H  0.28825775  0.99145692  0.75517597     0.16600
Zn1551     Zn  0.45898116  0.47450600  0.95911340     1.49700
Zn1552     Zn  0.44516371  0.45740101  0.71835330     1.49400
Zn1553     Zn  0.39331829  0.42523382  0.98893910     1.49100
Zn1554     Zn  0.48728811  0.38902331  0.68137503     1.49500
O1555       O  0.45794735  0.42433738  0.67170884    -1.83600
O1556       O  0.45878995  0.52054671  0.97073998    -0.74200
O1557       O  0.39465437  0.45682257  0.72274721    -0.74100
O1558       O  0.38689570  0.43903175  0.92127335    -0.73600
O1559       O  0.45636611  0.50040483  0.69897061    -0.74300
O1560       O  0.42834251  0.46625013  0.90219831    -0.73900
O1561       O  0.35563182  0.43883868  0.02102801    -0.74400
O1562       O  0.46906434  0.34303033  0.68077268    -0.73800
O1563       O  0.47931655  0.44658453  0.76786164    -0.74600
O1564       O  0.39463680  0.37793968  0.99934047    -0.74000
O1565       O  0.50709474  0.40704914  0.74490721    -0.74400
O1566       O  0.52003433  0.38771466  0.63287267    -0.74400
O1567       O  0.50664808  0.46338171  0.95798439    -0.74100
C1568       C  0.47034070  0.51234475  0.66333784     0.77600
C1569       C  0.37269270  0.43745416  0.70723310     0.78100
C1570       C  0.41543181  0.44067082  0.91237149     0.77100
C1571       C  0.44070324  0.33355149  0.68294110     0.77500
C1572       C  0.48183480  0.41774134  0.75962476     0.78600
C1573       C  0.53828561  0.41114071  0.63091768     0.77700
Zn1574     Zn  0.47278030  0.38147219  0.82882048     1.49700
Zn1575     Zn  0.47939891  0.44295207  0.87864324     1.49400
Zn1576     Zn  0.42554451  0.44636800  0.79853278     1.49100
Zn1577     Zn  0.41218387  0.39018694  0.85391101     1.49500
O1578       O  0.44874664  0.42005574  0.83936232    -1.83600
O1579       O  0.52008998  0.38550870  0.83148593    -0.74200
O1580       O  0.47754559  0.48981600  0.86940481    -0.74100
O1581       O  0.42734532  0.40977932  0.74962980    -0.73600
O1582       O  0.52367528  0.43297817  0.86371466    -0.74300
O1583       O  0.45540717  0.36981551  0.76340354    -0.73900
O1584       O  0.44706637  0.49211668  0.80242513    -0.74400
O1585       O  0.36765887  0.40466555  0.84278654    -0.73800
O1586       O  0.46324018  0.41964942  0.93398187    -0.74600
O1587       O  0.37991640  0.45102697  0.81664930    -0.74000
O1588       O  0.42275674  0.38847404  0.92270860    -0.74400
O1589       O  0.41495601  0.34537057  0.83321587    -0.74400
O1590       O  0.46056720  0.34748762  0.87083698    -0.74100
C1591       C  0.53651353  0.40933326  0.84588318     0.77600
C1592       C  0.46545168  0.50550799  0.83557721     0.78100
C1593       C  0.45367445  0.39778164  0.75290828     0.77100
C1594       C  0.35955198  0.43136907  0.83074148     0.77500
C1595       C  0.43421568  0.41550858  0.92835198     0.78600
C1596       C  0.43652155  0.33195464  0.85550203     0.77700
C1597       C  0.41338067  0.08513845  0.82875769    -0.02700
C1598       C  0.38975987  0.10229811  0.80851579    -0.05300
C1599       C  0.39283894  0.13423514  0.80834160    -0.20400
C1600       C  0.41936662  0.14957035  0.82914467     0.25400
C1601       C  0.44320747  0.13244073  0.84952375    -0.17900
C1602       C  0.44002986  0.10025162  0.84967219    -0.07900
C1603       C  0.42056801  0.18345192  0.83020154    -0.18200
C1604       C  0.43500238  0.20065635  0.86641850    -0.23000
C1605       C  0.43380828  0.23439058  0.86786497     0.27400
C1606       C  0.46055603  0.25197645  0.88220759    -0.19700
C1607       C  0.46108560  0.28390327  0.87920935    -0.09400
C1608       C  0.43466851  0.29863619  0.86237025    -0.09900
C1609       C  0.40726231  0.28113050  0.85072076    -0.02900
C1610       C  0.40678307  0.24912488  0.85362570    -0.18000
H1611       H  0.36866430  0.09091798  0.79356645     0.11100
H1612       H  0.37414215  0.14704039  0.79290981     0.11200
H1613       H  0.46420804  0.14374722  0.86515365     0.10800
H1614       H  0.45822829  0.08712145  0.86572667     0.12000
H1615       H  0.40737715  0.19455845  0.80185901     0.12000
H1616       H  0.44867011  0.19012527  0.89470997     0.13900
H1617       H  0.48140628  0.24090390  0.89383298     0.10500
H1618       H  0.48248234  0.29694017  0.88882368     0.12600
H1619       H  0.38647671  0.29207150  0.83851618     0.09200
H1620       H  0.38548172  0.23590983  0.84409501     0.11900
C1621       C  0.43136331  0.30094183  0.69043914    -0.02700
C1622       C  0.40517605  0.29478211  0.71878993    -0.05300
C1623       C  0.39205806  0.26497321  0.72043872    -0.20400
C1624       C  0.40469694  0.24041582  0.69383786     0.25400
C1625       C  0.43167508  0.24622260  0.66656390    -0.17900
C1626       C  0.44501788  0.27633744  0.66513549    -0.07900
C1627       C  0.38754181  0.20991109  0.69328460    -0.18200
C1628       C  0.40025844  0.18288630  0.68181476    -0.23000
C1629       C  0.38263121  0.15261352  0.68131060     0.27400
C1630       C  0.39944684  0.12586414  0.68553049    -0.19700
C1631       C  0.38422431  0.09686798  0.68407902    -0.09400
C1632       C  0.35180970  0.09382506  0.67823688    -0.09900
C1633       C  0.33474212  0.12029698  0.67310881    -0.02900
C1634       C  0.35002037  0.14958250  0.67465939    -0.18000
H1635       H  0.39418449  0.31335550  0.73868478     0.11100
H1636       H  0.37142094  0.26123335  0.74177712     0.11200
H1637       H  0.44169294  0.22801611  0.64457179     0.10800
H1638       H  0.46481699  0.28065012  0.64221270     0.12000
H1639       H  0.36362130  0.20981054  0.70483861     0.12000
H1640       H  0.42488107  0.18258912  0.67452891     0.13900
H1641       H  0.42450013  0.12739130  0.68992690     0.10500
H1642       H  0.39779962  0.07653877  0.68661185     0.12600
H1643       H  0.30981557  0.11822020  0.66730761     0.09200
H1644       H  0.33631356  0.16955596  0.66931802     0.11900
C1645       C  0.32666604  0.44043608  0.83591848    -0.02700
C1646       C  0.30360423  0.41938537  0.85158238    -0.05300
C1647       C  0.27283449  0.42819885  0.85669059    -0.20400
C1648       C  0.26412089  0.45822502  0.84616377     0.25400
C1649       C  0.28732247  0.47939309  0.83091600    -0.17900
C1650       C  0.31809032  0.47060409  0.82598405    -0.07900
C1651       C  0.23105069  0.46665120  0.85355251    -0.18200
C1652       C  0.21819620  0.49213449  0.83602714    -0.23000
C1653       C  0.18526251  0.50075581  0.84388587     0.27400
C1654       C  0.17220125  0.52228374  0.81298896    -0.19700
C1655       C  0.14142214  0.53088341  0.81824996    -0.09400
C1656       C  0.12278508  0.51845453  0.85497629    -0.09900
C1657       C  0.13601684  0.49745843  0.88673194    -0.02900
C1658       C  0.16685200  0.48880360  0.88148179    -0.18000
H1659       H  0.30931850  0.39604718  0.85997094     0.11100
H1660       H  0.25570859  0.41139074  0.86896546     0.11200
H1661       H  0.28216766  0.50295466  0.82345141     0.10800
H1662       H  0.33523484  0.48756574  0.81427263     0.12000
H1663       H  0.21658906  0.45050717  0.87330041     0.12000
H1664       H  0.23186472  0.50703232  0.81298246     0.13900
H1665       H  0.18570733  0.53208085  0.78388029     0.10500
H1666       H  0.13197259  0.54695724  0.79301471     0.12600
H1667       H  0.12213566  0.48675683  0.91447236     0.09200
H1668       H  0.17599446  0.47275815  0.90697213     0.11900
C1669       C  0.11886995  0.47191049  0.68033384    -0.02700
C1670       C  0.13676064  0.48082940  0.63992714    -0.05300
C1671       C  0.15285078  0.49724805  0.02406490    -0.20400
C1672       C  0.16923766  0.47248372  0.04138247     0.25400
C1673       C  0.15285258  0.44458197  0.05095981    -0.17900
C1674       C  0.12057269  0.44195444  0.04426375    -0.07900
C1675       C  0.20335274  0.47661269  0.04814474    -0.18200
C1676       C  0.22000236  0.46021806  0.07932644    -0.23000
C1677       C  0.25424056  0.46217046  0.08058323     0.27400
C1678       C  0.26989259  0.43468658  0.08358077    -0.19700
C1679       C  0.30180343  0.43470592  0.07738298    -0.09400
C1680       C  0.33882930  0.44341761  0.71234014    -0.09900
C1681       C  0.30361326  0.49035422  0.07063260    -0.02900
C1682       C  0.27136352  0.49025943  0.07587910    -0.18000
H1683       H  0.12578308  0.48889766  0.60705952     0.11100
H1684       H  0.16488282  0.51892264  0.01647862     0.11200
H1685       H  0.16478523  0.42467576  0.06303610     0.10800
H1686       H  0.10813715  0.42059577  0.05230461     0.12000
H1687       H  0.21517213  0.49378000  0.02637498     0.12000
H1688       H  0.20864469  0.44282616  0.10110479     0.13900
H1689       H  0.25716774  0.41290637  0.08787092     0.10500
H1690       H  0.31318794  0.41287280  0.07690971     0.12600
H1691       H  0.34131742  0.49146385  0.69342587     0.09200
H1692       H  0.25974949  0.51190369  0.07491321     0.11900
C1693       C  0.03153338  0.95524576  0.84582593    -0.02700
C1694       C  0.03986984  0.98640917  0.85763675    -0.05300
C1695       C  0.07079150  0.99738544  0.85378409    -0.20400
C1696       C  0.09390611  0.97727253  0.83907991     0.25400
C1697       C  0.08544378  0.94616907  0.82723743    -0.17900
C1698       C  0.05468960  0.93536916  0.83032407    -0.07900
C1699       C  0.12667237  0.98890540  0.83533098    -0.18200
C1700       C  0.15045564  0.97124388  0.84715289    -0.23000
C1701       C  0.18369045  0.98108586  0.84417826     0.27400
C1702       C  0.20456308  0.96962898  0.87836825    -0.19700
C1703       C  0.23636671  0.97597672  0.87519019    -0.09400
C1704       C  0.24831430  0.99356363  0.83704942    -0.09900
C1705       C  0.22747077  0.00511046  0.80247262    -0.02900
C1706       C  0.19530863  0.99915618  0.80624307    -0.18000
H1707       H  0.02242869  0.00235253  0.86882891     0.11100
H1708       H  0.07674268  0.02150791  0.86276253     0.11200
H1709       H  0.10249183  0.93022419  0.81454774     0.10800
H1710       H  0.04902482  0.91130347  0.82042857     0.12000
H1711       H  0.13124913  0.01257772  0.82495269     0.12000
H1712       H  0.14540426  0.94884290  0.86245803     0.13900
H1713       H  0.19620618  0.95545057  0.90753520     0.10500
H1714       H  0.25172867  0.96626509  0.90189915     0.12600
H1715       H  0.23609507  0.01864885  0.77269413     0.09200
H1716       H  0.17971407  0.00776115  0.77872211     0.11900
C1717       C  0.95698359  0.59853061  0.84443003    -0.02700
C1718       C  0.96793183  0.61979898  0.88201406    -0.05300
C1719       C  0.96584673  0.65165726  0.87667728    -0.20400
C1720       C  0.95255957  0.66324601  0.83395335     0.25400
C1721       C  0.94131871  0.64207475  0.79645991    -0.17900
C1722       C  0.94334260  0.61018056  0.80181545    -0.07900
C1723       C  0.95190863  0.69745301  0.82932806    -0.18200
C1724       C  0.93151981  0.71134291  0.79995339    -0.23000
C1725       C  0.92998573  0.74556978  0.79599565     0.27400
C1726       C  0.90286885  0.75750515  0.77598218    -0.19700
C1727       C  0.90051299  0.78931567  0.77020237    -0.09400
C1728       C  0.92547521  0.81008207  0.78358571    -0.09900
C1729       C  0.95255938  0.79822146  0.80402936    -0.02900
C1730       C  0.95489996  0.76638493  0.80993517    -0.18000
H1731       H  0.97924507  0.61203467  0.91486827     0.11100
H1732       H  0.97493566  0.66738388  0.90596234     0.11200
H1733       H  0.93176023  0.64996318  0.76230777     0.10800
H1734       H  0.93476748  0.59461964  0.77201238     0.12000
H1735       H  0.96780547  0.71155271  0.85314000     0.12000
H1736       H  0.91401156  0.69715792  0.77933377     0.13900
H1737       H  0.88333633  0.74211649  0.76471033     0.10500
H1738       H  0.87923165  0.79760365  0.75464900     0.12600
H1739       H  0.97216437  0.81356335  0.81506044     0.09200
H1740       H  0.97654304  0.75829189  0.82427452     0.11900
C1741       C  0.27171698  0.92903002  0.99831068    -0.02700
C1742       C  0.26107238  0.90919413  0.95866606    -0.05300
C1743       C  0.22955643  0.90046440  0.95289381    -0.20400
C1744       C  0.20804992  0.91157865  0.98637519     0.25400
C1745       C  0.21892962  0.92937371  0.02812856    -0.17900
C1746       C  0.25039526  0.93808045  0.03396069    -0.07900
C1747       C  0.17432690  0.90671928  0.97490945    -0.18200
C1748       C  0.15487405  0.92967909  0.98348928    -0.23000
C1749       C  0.12140942  0.92893394  0.96929222     0.27400
C1750       C  0.10686568  0.95720334  0.97048126    -0.19700
C1751       C  0.07511243  0.95833911  0.96175350    -0.09400
C1752       C  0.05678629  0.93118664  0.95116120    -0.09900
C1753       C  0.07132792  0.90277955  0.94797826    -0.02900
C1754       C  0.10347256  0.90160383  0.95716731    -0.18000
H1755       H  0.27696188  0.90144276  0.93100487     0.11100
H1756       H  0.22174058  0.88651194  0.92069953     0.11200
H1757       H  0.20295586  0.93755340  0.05540357     0.10800
H1758       H  0.25757481  0.95338245  0.06489723     0.12000
H1759       H  0.16631671  0.88574903  0.95456298     0.12000
H1760       H  0.16450306  0.95142193  0.99977118     0.13900
H1761       H  0.12005962  0.97863198  0.97921015     0.10500
H1762       H  0.06483537  0.98071436  0.96415649     0.12600
H1763       H  0.05775125  0.88148599  0.94023945     0.09200
H1764       H  0.11383434  0.87930725  0.95637130     0.11900
C1765       C  0.01516215  0.61889923  0.01995574    -0.02700
C1766       C  0.02749328  0.63727546  0.73706126    -0.05300
C1767       C  0.02079571  0.66874246  0.74104541    -0.20400
C1768       C  0.00297286  0.68233784  0.70440510     0.25400
C1769       C  0.99251106  0.66375955  0.66323720    -0.17900
C1770       C  0.99901519  0.63245784  0.65947850    -0.07900
C1771       C  0.99679582  0.71605923  0.70887059    -0.18200
C1772       C  0.97295822  0.72877088  0.68491207    -0.23000
C1773       C  0.96707942  0.76253117  0.68453513     0.27400
C1774       C  0.93893127  0.77154304  0.66345106    -0.19700
C1775       C  0.93278748  0.80280577  0.65926064    -0.09400
C1776       C  0.95007734  0.82465585  0.00905671    -0.09900
C1777       C  0.98268206  0.81715079  0.69768052    -0.02900
C1778       C  0.98898840  0.78580952  0.70163811    -0.18000
H1779       H  0.04114411  0.62750374  0.76598015     0.11100
H1780       H  0.02940386  0.68247187  0.77300905     0.11200
H1781       H  0.97954809  0.67322086  0.63330920     0.10800
H1782       H  0.98944098  0.61880802  0.62827964     0.12000
H1783       H  0.01214804  0.73044620  0.73311740     0.12000
H1784       H  0.95629472  0.71359407  0.66430405     0.13900
H1785       H  0.92174174  0.75427880  0.64940174     0.10500
H1786       H  0.91130976  0.80904589  0.64157984     0.12600
H1787       H  0.00013495  0.83466068  0.70988434     0.09200
H1788       H  0.01123647  0.78014066  0.71707212     0.11900
C1789       C  0.51162398  0.76127695  0.82733651    -0.02700
C1790       C  0.50937951  0.74457984  0.78156883    -0.05300
C1791       C  0.50386394  0.71230626  0.77861498    -0.20400
C1792       C  0.50041144  0.69505382  0.82095467     0.25400
C1793       C  0.50370125  0.71125459  0.86696931    -0.17900
C1794       C  0.50922619  0.74373441  0.87008216    -0.07900
C1795       C  0.49169216  0.66083203  0.81478217    -0.18200
C1796       C  0.49647624  0.63953700  0.84912393    -0.23000
C1797       C  0.48845585  0.60523967  0.84221848     0.27400
C1798       C  0.50483496  0.58455696  0.87047069    -0.19700
C1799       C  0.49752627  0.55260297  0.86751471    -0.09400
C1800       C  0.47336044  0.53985785  0.83619305    -0.09900
C1801       C  0.45687162  0.56046532  0.80761918    -0.02900
C1802       C  0.46430080  0.59268169  0.81051751    -0.18000
H1803       H  0.51100526  0.75628818  0.74739343     0.11100
H1804       H  0.50195925  0.70067670  0.74267056     0.11200
H1805       H  0.50101586  0.69913314  0.90071396     0.10800
H1806       H  0.51095856  0.75499143  0.90625921     0.12000
H1807       H  0.48202663  0.65271274  0.77915554     0.12000
H1808       H  0.50848590  0.64716645  0.88322214     0.13900
H1809       H  0.52341508  0.59321179  0.89543180     0.10500
H1810       H  0.51086634  0.53782155  0.89033585     0.12600
H1811       H  0.43779212  0.55175663  0.78378181     0.09200
H1812       H  0.45056238  0.60773418  0.78887968     0.11900
C1813       C  0.80012397  0.94554659  0.77400253    -0.02700
C1814       C  0.77956023  0.92289405  0.79214915    -0.05300
C1815       C  0.74808863  0.92825131  0.79664320    -0.20400
C1816       C  0.73620829  0.95652740  0.78341461     0.25400
C1817       C  0.75644675  0.97899817  0.76418552    -0.17900
C1818       C  0.78822744  0.97376370  0.76016847    -0.07900
C1819       C  0.70260093  0.96224671  0.78811713    -0.18200
C1820       C  0.68601877  0.95069962  0.82518039    -0.23000
C1821       C  0.65170518  0.95174041  0.82982398     0.27400
C1822       C  0.63168662  0.95940107  0.79102932    -0.19700
C1823       C  0.59943477  0.95533622  0.79506038    -0.09400
C1824       C  0.58633293  0.94290811  0.83747372    -0.09900
C1825       C  0.60650016  0.93728590  0.87733053    -0.02900
C1826       C  0.63861760  0.94165103  0.87345879    -0.18000
H1827       H  0.78774845  0.90083117  0.80302863     0.11100
H1828       H  0.73298737  0.90996608  0.80987218     0.11200
H1829       H  0.74773760  0.00080047  0.75304766     0.10800
H1830       H  0.80341349  0.99168772  0.74605675     0.12000
H1831       H  0.69180352  0.97633895  0.76106695     0.12000
H1832       H  0.69833146  0.93897179  0.85379431     0.13900
H1833       H  0.64064438  0.96706273  0.75657906     0.10500
H1834       H  0.58494638  0.96060529  0.76381199     0.12600
H1835       H  0.59793519  0.92755616  0.91062168     0.09200
H1836       H  0.65340509  0.93561397  0.90405310     0.11900
C1837       C  0.47049083  0.54633917  0.66025402    -0.02700
C1838       C  0.41484984  0.58457619  0.00846329    -0.05300
C1839       C  0.41255431  0.61622782  0.00235426    -0.20400
C1840       C  0.43806646  0.63392269  0.98590616     0.25400
C1841       C  0.46570057  0.61915566  0.97546197    -0.17900
C1842       C  0.46785370  0.58740026  0.98114236    -0.07900
C1843       C  0.43667124  0.66748282  0.97769305    -0.18200
C1844       C  0.41520523  0.68586180  0.99702240    -0.23000
C1845       C  0.41616709  0.71961023  0.98993728     0.27400
C1846       C  0.42813551  0.73219830  0.94718030    -0.19700
C1847       C  0.43312912  0.76404461  0.94441251    -0.09400
C1848       C  0.48037038  0.76502660  0.64431182    -0.09900
C1849       C  0.41112780  0.77158684  0.02485678    -0.02900
C1850       C  0.40626550  0.73960384  0.02765137    -0.18000
H1851       H  0.39476802  0.57138771  0.02066511     0.11100
H1852       H  0.39059188  0.62639987  0.00967461     0.11200
H1853       H  0.48571728  0.63224634  0.96288708     0.10800
H1854       H  0.48939717  0.57652959  0.97300576     0.12000
H1855       H  0.45525210  0.67775611  0.95664993     0.12000
H1856       H  0.39830721  0.67675226  0.02218295     0.13900
H1857       H  0.43468214  0.71744821  0.91640846     0.10500
H1858       H  0.44439305  0.77240798  0.91217270     0.12600
H1859       H  0.40451603  0.78631542  0.05556592     0.09200
H1860       H  0.39634288  0.73040888  0.06053867     0.11900
C1861       C  0.60439565  0.87342888  0.00411875    -0.02700
C1862       C  0.61737676  0.89125484  0.04443831    -0.05300
C1863       C  0.64893358  0.89985160  0.04635791    -0.20400
C1864       C  0.66838627  0.89070912  0.00846768     0.25400
C1865       C  0.65573701  0.87251180  0.96837510    -0.17900
C1866       C  0.62398711  0.86406625  0.96615043    -0.07900
C1867       C  0.70129294  0.90207312  0.01053983    -0.18200
C1868       C  0.72461160  0.88500597  0.99453238    -0.23000
C1869       C  0.75729209  0.89688500  0.99830322     0.27400
C1870       C  0.78040206  0.87782226  0.01523807    -0.19700
C1871       C  0.81145502  0.88863561  0.01865998    -0.09400
C1872       C  0.81998785  0.91848962  0.00404693    -0.09900
C1873       C  0.79679114  0.93733349  0.98621630    -0.02900
C1874       C  0.76570176  0.92678319  0.98393792    -0.18000
H1875       H  0.60304909  0.89945415  0.07391256     0.11100
H1876       H  0.65822956  0.91375529  0.07754347     0.11200
H1877       H  0.67014958  0.86560222  0.93812691     0.10800
H1878       H  0.61468893  0.85041271  0.93460571     0.12000
H1879       H  0.70672435  0.92459313  0.02846836     0.12000
H1880       H  0.71989068  0.86123923  0.98136407     0.13900
H1881       H  0.77435854  0.85460872  0.02612835     0.10500
H1882       H  0.82889070  0.87340622  0.03160193     0.12600
H1883       H  0.80268936  0.96029779  0.97407385     0.09200
H1884       H  0.74830881  0.94171950  0.96996032     0.11900
C1885       C  0.89853852  0.04653604  0.84580285    -0.02700
C1886       C  0.87207544  0.05439958  0.87193105    -0.05300
C1887       C  0.86344671  0.08540076  0.87626239    -0.20400
C1888       C  0.88085722  0.10910240  0.85410184     0.25400
C1889       C  0.90784035  0.10107649  0.82917584    -0.17900
C1890       C  0.91625444  0.07023178  0.82457948    -0.07900
C1891       C  0.87086145  0.14193185  0.85813063    -0.18200
C1892       C  0.87792531  0.16293739  0.82407120    -0.23000
C1893       C  0.87042446  0.19653816  0.82593591     0.27400
C1894       C  0.87823395  0.21398482  0.78523561    -0.19700
C1895       C  0.87445347  0.24590137  0.78552654    -0.09400
C1896       C  0.86263173  0.26185249  0.82673866    -0.09900
C1897       C  0.85374700  0.24421312  0.86710743    -0.02900
C1898       C  0.85751737  0.21200935  0.86670943    -0.18000
H1899       H  0.85764427  0.03650752  0.88777229     0.11100
H1900       H  0.84277193  0.09080484  0.89618095     0.11200
H1901       H  0.92265205  0.11853310  0.81312685     0.10800
H1902       H  0.93659330  0.06475254  0.80381707     0.12000
H1903       H  0.85669208  0.14838083  0.88897986     0.12000
H1904       H  0.89014383  0.15504654  0.79178693     0.13900
H1905       H  0.88813745  0.20296194  0.75312002     0.10500
H1906       H  0.88204919  0.25802316  0.75374061     0.12600
H1907       H  0.84426242  0.25525079  0.89944639     0.09200
H1908       H  0.85097516  0.19963985  0.89885106     0.11900
C1909       C  0.78923903  0.43036198  0.83063587    -0.02700
C1910       C  0.77616249  0.44646417  0.87051122    -0.05300
C1911       C  0.74397118  0.44931380  0.87272504    -0.20400
C1912       C  0.72409413  0.43567402  0.83565060     0.25400
C1913       C  0.73717127  0.42107104  0.79451022    -0.17900
C1914       C  0.76927402  0.41839687  0.79207364    -0.07900
C1915       C  0.68989582  0.43650031  0.84118994    -0.18200
C1916       C  0.67011994  0.41365337  0.82298341    -0.23000
C1917       C  0.63595585  0.41307895  0.82991074     0.27400
C1918       C  0.61903608  0.38461341  0.82604548    -0.19700
C1919       C  0.58677042  0.38318498  0.83143991    -0.09400
C1920       C  0.57071977  0.41028676  0.84062658    -0.09900
C1921       C  0.58761593  0.43878731  0.84375781    -0.02900
C1922       C  0.61980829  0.44021425  0.83846677    -0.18000
H1923       H  0.79074699  0.45619356  0.90061429     0.11100
H1924       H  0.73447335  0.46105397  0.90453475     0.11200
H1925       H  0.72262852  0.41125972  0.76439740     0.10800
H1926       H  0.77811489  0.40559628  0.76086952     0.12000
H1927       H  0.68120278  0.45509843  0.86420454     0.12000
H1928       H  0.67945313  0.39355043  0.80440404     0.13900
H1929       H  0.63086062  0.36337020  0.81901816     0.10500
H1930       H  0.57441449  0.36089033  0.82855039     0.12600
H1931       H  0.57588267  0.46016406  0.84989154     0.09200
H1932       H  0.63177762  0.46267410  0.84024231     0.11900
C1933       C  0.90171807  0.27044151  0.98232160    -0.02700
C1934       C  0.94403604  0.26503480  0.70185298    -0.05300
C1935       C  0.94619713  0.23284387  0.69939439    -0.20400
C1936       C  0.94266317  0.21591200  0.65439054     0.25400
C1937       C  0.93769513  0.23223795  0.61140470    -0.17900
C1938       C  0.93504576  0.26446714  0.61387028    -0.07900
C1939       C  0.94245634  0.18132891  0.65463565    -0.18200
C1940       C  0.94812873  0.16267260  0.61513412    -0.23000
C1941       C  0.94801340  0.12818285  0.61686502     0.27400
C1942       C  0.96746837  0.11161786  0.58557806    -0.19700
C1943       C  0.96784179  0.07924249  0.58591504    -0.09400
C1944       C  0.93243685  0.05725556  0.95425846    -0.09900
C1945       C  0.92797542  0.07900115  0.64697199    -0.02900
C1946       C  0.92818364  0.11144742  0.64760514    -0.18000
H1947       H  0.86315171  0.26102648  0.03069922     0.11100
H1948       H  0.95024894  0.22102565  0.73315371     0.11200
H1949       H  0.93452599  0.22016052  0.57597528     0.10800
H1950       H  0.93000672  0.27556853  0.57995472     0.12000
H1951       H  0.93851147  0.17085863  0.68969724     0.12000
H1952       H  0.95478637  0.17285709  0.58092544     0.13900
H1953       H  0.98266022  0.12381442  0.56104734     0.10500
H1954       H  0.98323362  0.06715223  0.56162679     0.12600
H1955       H  0.91235801  0.06670374  0.67075322     0.09200
H1956       H  0.91229341  0.12329466  0.67129359     0.11900
C1957       C  0.57177658  0.40673197  0.63175382    -0.02700
C1958       C  0.57501284  0.46520530  0.96026900    -0.05300
C1959       C  0.60753819  0.46338057  0.96045203    -0.20400
C1960       C  0.62156596  0.43498327  0.96655021     0.25400
C1961       C  0.60236034  0.40851160  0.97288394    -0.17900
C1962       C  0.57010033  0.41038011  0.97331477    -0.07900
C1963       C  0.65612955  0.43354663  0.96901884    -0.18200
C1964       C  0.67095931  0.40804934  0.95437793    -0.23000
C1965       C  0.70508149  0.40438437  0.95969655     0.27400
C1966       C  0.71924521  0.38344037  0.92754099    -0.19700
C1967       C  0.75050436  0.37677481  0.93402796    -0.09400
C1968       C  0.77410070  0.34603354  0.66654157    -0.09900
C1969       C  0.75438192  0.41202818  0.00525621    -0.02900
C1970       C  0.72310738  0.41896394  0.99834193    -0.18000
H1971       H  0.56488521  0.48740517  0.95590302     0.11100
H1972       H  0.62178655  0.48417734  0.95574650     0.11200
H1973       H  0.61219977  0.38640315  0.97918495     0.10800
H1974       H  0.55622179  0.38950443  0.97918928     0.12000
H1975       H  0.66956788  0.45404756  0.98237924     0.12000
H1976       H  0.65752444  0.38887071  0.93642094     0.13900
H1977       H  0.70590008  0.37180894  0.89752341     0.10500
H1978       H  0.76019342  0.35991685  0.90903384     0.12600
H1979       H  0.76717665  0.42342183  0.03589517     0.09200
H1980       H  0.71281728  0.43477759  0.02444163     0.11900
loop_ 
_geom_bond_atom_site_label_1 
_geom_bond_atom_site_label_2 
_geom_bond_distance 
_geom_bond_site_symmetry_2 
_ccdc_geom_bond_type 
C1            C3   1.557       .  S
C1            C5   1.562       .  S
C1            C4   1.553       .  S
C1           C25   1.668       .  S
C2            C6   1.565       .  S
C2            C8   1.567       .  S
C2            C7   1.579       .  S
C2           C24   1.746       .  S
C3           C11   1.385       .  A
C3          C666   1.432       .  A
C4           C15   1.381       .  A
C4          C667   1.404       .  A
C5           C19   1.382       .  A
C5          C668   1.431       .  A
C6            C9   1.384       .  A
C6         C1323   1.420   1_554  A
C7           C13   1.398       .  A
C7         C1324   1.436   1_554  A
C8           C16   1.381       .  A
C8         C1325   1.435   1_554  A
C9           H22   1.079       .  S
C9         N1330   1.366       .  A
N10          C11   1.358       .  A
N10         C669   1.358       .  A
N10         N148   1.423       .  S
C11          H12   1.077       .  S
C13          H23   1.071       .  S
C13          N14   1.355   1_554  A
N14        C1335   1.349       .  A
N14         C648   1.453       .  S
C15          H21   1.080       .  S
C15         N674   1.363       .  A
C16          H18   1.073       .  S
C16        N1337   1.347   1_554  A
N17          C19   1.351       .  A
N17         C676   1.358       .  A
N17         C613   1.442       .  S
C19          H20   1.079       .  S
C24          C26   1.563       .  S
C24          C28   1.585       .  S
C24          C27   1.577       .  S
C25          C29   1.546       .  S
C25          C31   1.557       .  S
C25          C30   1.542       .  S
C26          C34   1.386       .  A
C26          C29   1.418       .  A
C27          C38   1.388       .  A
C27          C30   1.437       .  A
C28          C42   1.398       .  A
C28          C31   1.434       .  A
C29          C32   1.375       .  A
C30          C36   1.379       .  A
C31          C39   1.377       .  A
C32          H45   1.079       .  S
C32          N33   1.358       .  A
N33          C34   1.365       .  A
N33         N171   1.420       .  S
C34          H35   1.079       .  S
C36          H46   1.080       .  S
C36          N37   1.349       .  A
N37          C38   1.353       .  A
N37         C589   1.453       .  S
C38          H44   1.074       .  S
C39          H41   1.081       .  S
C39          N40   1.343       .  A
N40          C42   1.351       .  A
N40         C576   1.439       .  S
C42          H43   1.072       .  S
C47          C49   1.555       .  S
C47          C51   1.549       .  S
C47          C50   1.547       .  S
C47          C71   1.636       .  S
C48          C52   1.580       .  S
C48          C54   1.554       .  S
C48          C53   1.582       .  S
C48          C70   1.738       .  S
C49          C57   1.383       .  A
C49        C1372   1.419   1_554  A
C50          C61   1.376       .  A
C50        C1373   1.410   1_554  A
C51          C65   1.377       .  A
C51        C1374   1.406   1_554  A
C52          C55   1.365       .  A
C52         C709   1.414       .  A
C53          C59   1.390       .  A
C53         C710   1.434       .  A
C54          C62   1.380       .  A
C54         C711   1.437       .  A
C55          H68   1.080       .  S
C55          N56   1.327       .  A
N56         C717   1.336       .  A
N56         N194   1.405       .  S
C57          H58   1.079       .  S
C57        N1376   1.359   1_554  A
C59          H69   1.080       .  S
C59          N60   1.361       .  A
N60         C721   1.355       .  A
N60         C541   1.451       .  S
C61          H67   1.081       .  S
C61        N1380   1.358       .  A
C62          H64   1.078       .  S
C62         N723   1.347       .  A
N63          C65   1.362   1_556  A
N63        C1382   1.359       .  A
N63         C528   1.446       .  S
C65          H66   1.080       .  S
C70          C72   1.576       .  S
C70          C74   1.567       .  S
C70          C73   1.565       .  S
C71          C75   1.557       .  S
C71          C77   1.539       .  S
C71          C76   1.541       .  S
C72          C80   1.374       .  A
C72          C75   1.432       .  A
C73          C84   1.387       .  A
C73          C76   1.410       .  A
C74          C88   1.390       .  A
C74          C77   1.428       .  A
C75          C78   1.395       .  A
C76          C82   1.375       .  A
C77          C85   1.376       .  A
C78          H91   1.081       .  S
C78          N79   1.351       .  A
N79          C80   1.336       .  A
N79         N217   1.416       .  S
C80          H81   1.075       .  S
C82          H92   1.081       .  S
C82          N83   1.355       .  A
N83          C84   1.362       .  A
N83         C504   1.449       .  S
C84          H90   1.077       .  S
C85          H87   1.079       .  S
C85          N86   1.347       .  A
N86          C88   1.352       .  A
N86         C469   1.446       .  S
C88          H89   1.076       .  S
Zn93         O97   2.028       .  S
Zn93         O98   2.078   1_655  S
Zn93        O102   2.115       .  S
Zn93        O109   1.960       .  S
Zn94       O1417   2.046       .  S
Zn94         O99   1.971   1_565  S
Zn94        O101   1.962   1_655  S
Zn94        O105   2.117   1_556  S
Zn95         O97   2.074       .  S
Zn95        O100   2.219       .  S
Zn95        O103   2.134   1_565  S
Zn95        O106   1.972       .  S
Zn96       O1417   2.175   1_554  S
Zn96        O104   2.052       .  S
Zn96        O107   2.702       .  S
Zn96        O108   2.067       .  S
O97        Zn754   2.033       .  S
O97        Zn756   2.215       .  S
O98         C110   1.284       .  A
O99        C1431   1.273       .  A
O100        C112   1.380       .  A
O101       C1430   1.270       .  A
O102        C112   1.375       .  A
O103        C111   1.285       .  A
O104       C1433   1.278       .  A
O105        C114   1.276       .  A
O106        C113   1.262       .  A
O107        C114   1.294       .  A
O108       C1435   1.279   1_554  A
O109        C115   1.262       .  A
C110        O761   1.274       .  A
C110        C432   1.484       .  S
C111        O759   1.274       .  A
C111        C624   1.491       .  S
C112        C134   1.498       .  S
C113        O764   1.279       .  A
C113        C552   1.480       .  S
C114        C138   1.501       .  S
C115        O768   1.282       .  A
C115        C456   1.480       .  S
Zn116       O120   2.051       .  S
Zn116       O121   1.938   1_565  S
Zn116       O125   2.074       .  S
Zn116       O132   2.114       .  S
Zn117       O120   2.187       .  S
Zn117       O122   2.699       .  S
Zn117       O124   2.056       .  S
Zn117       O128   2.045       .  S
Zn118       O120   2.037       .  S
Zn118       O123   1.999       .  S
Zn118       O126   2.115       .  S
Zn118       O129   1.981       .  S
Zn119       O120   2.074       .  S
Zn119       O127   2.115       .  S
Zn119       O130   2.006       .  S
Zn119       O131   2.182       .  S
O121        C133   1.258       .  A
O122        C134   1.297       .  A
O123        C135   1.275       .  A
O124        C133   1.275   1_565  A
O125        C135   1.282       .  A
O126        C134   1.276       .  A
O127        C136   1.288       .  A
O128        C137   1.276   1_655  A
O129        C136   1.277       .  A
O130        C137   1.269   1_655  A
O131        C138   1.377       .  A
O132        C138   1.372       .  A
C133        C565   1.465       .  S
C135        C493   1.489       .  S
C136        C408   1.486       .  S
C137        C373   1.489       .  S
C139        C141   1.553   1_455  S
C139        C143   1.553       .  S
C139        C142   1.573       .  S
C139        C163   1.674       .  S
C140        C144   1.549   1_455  S
C140        C146   1.552       .  S
C140        C145   1.549       .  S
C140        C162   1.667       .  S
C141        C149   1.383       .  A
C141        C804   1.411       .  A
C142        C153   1.396       .  A
C142        C805   1.432       .  A
C143        C157   1.377       .  A
C143        C806   1.418       .  A
C144        C147   1.378       .  A
C144       C1461   1.423   1_554  A
C145        C151   1.377       .  A
C145       C1462   1.429   1_554  A
C146        C154   1.379       .  A
C146       C1463   1.422   1_554  A
C147        H160   1.080       .  S
C147       N1468   1.358       .  A
N148        C149   1.363       .  A
N148        C807   1.363       .  A
C149        H150   1.080       .  S
C151        H161   1.081       .  S
C151        N152   1.350       .  A
N152       C1473   1.353   1_554  A
N152        C349   1.429       .  S
C153        H159   1.079       .  S
C153        N812   1.363       .  A
C154        H156   1.081       .  S
C154       N1475   1.358       .  A
N155        C157   1.358       .  A
N155        C814   1.362       .  A
N155        C445   1.445       .  S
C157        H158   1.080       .  S
C162        C164   1.551       .  S
C162        C166   1.553   1_455  S
C162        C165   1.547       .  S
C163        C167   1.562       .  S
C163        C169   1.565   1_455  S
C163        C168   1.542       .  S
C164        C172   1.381   1_455  A
C164        C167   1.427       .  A
C165        C176   1.375       .  A
C165        C168   1.410       .  A
C166        C180   1.377       .  A
C166        C169   1.436       .  A
C167        C170   1.384   1_455  A
C168        C174   1.372       .  A
C169        C177   1.385       .  A
C170        H183   1.078       .  S
C170        N171   1.361       .  A
N171        C172   1.355       .  A
C172        H173   1.079       .  S
C174        H184   1.081       .  S
C174        N175   1.356       .  A
N175        C176   1.360       .  A
N175        C336   1.438       .  S
C176        H182   1.082       .  S
C177        H179   1.080       .  S
C177        N178   1.358       .  A
N178        C180   1.353       .  A
N178        C397   1.442       .  S
C180        H181   1.081       .  S
C185        C187   1.571   1_545  S
C185        C189   1.552       .  S
C185        C188   1.556   1_545  S
C185        C209   1.661       .  S
C186        C190   1.568   1_545  S
C186        C192   1.569       .  S
C186        C191   1.548   1_545  S
C186        C208   1.691       .  S
C187        C195   1.390       .  A
C187       C1510   1.418   1_554  A
C188        C199   1.381       .  A
C188       C1511   1.414   1_554  A
C189        C203   1.381       .  A
C189       C1512   1.419   1_554  A
C190        C193   1.387       .  A
C190        C847   1.443       .  A
C191        C197   1.373       .  A
C191        C848   1.420       .  A
C192        C200   1.392       .  A
C192        C849   1.439       .  A
C193        H206   1.079       .  S
C193        N194   1.349       .  A
N194        C855   1.334       .  A
C195        H196   1.080       .  S
C195       N1514   1.367   1_554  A
C197        H207   1.081       .  S
C197        N198   1.360       .  A
N198        C859   1.363       .  A
N198        C421   1.447       .  S
C199        H205   1.081       .  S
C199       N1518   1.362   1_554  A
C200        H202   1.081       .  S
C200        N861   1.352       .  A
N201        C203   1.359   1_556  A
N201       C1520   1.361       .  A
N201        C312   1.447       .  S
C203        H204   1.080       .  S
C208        C210   1.570   1_545  S
C208        C212   1.559       .  S
C208        C211   1.557       .  S
C209        C213   1.540   1_545  S
C209        C215   1.560       .  S
C209        C214   1.560       .  S
C210        C218   1.380       .  A
C210        C213   1.422       .  A
C211        C222   1.379       .  A
C211        C214   1.426       .  A
C212        C226   1.378       .  A
C212        C215   1.427       .  A
C213        C216   1.383       .  A
C214        C220   1.388       .  A
C215        C223   1.387       .  A
C216        H229   1.078       .  S
C216        N217   1.345       .  A
N217        C218   1.365       .  A
C218        H219   1.076       .  S
C220        H230   1.082       .  S
C220        N221   1.361       .  A
N221        C222   1.358       .  A
N221        C384   1.446       .  S
C222        H228   1.081       .  S
C223        H225   1.079       .  S
C223        N224   1.362       .  A
N224        C226   1.355       .  A
N224        C277   1.454       .  S
C226        H227   1.077       .  S
Zn231       O895   2.017       .  S
Zn231       O236   2.055       .  S
Zn231       O240   1.989       .  S
Zn231       O247   1.966       .  S
Zn232       O235   1.926       .  S
Zn232       O237   2.089       .  S
Zn232       O239   2.000       .  S
Zn232       O243   1.973       .  S
Zn233       O895   2.047       .  S
Zn233       O238   2.022       .  S
Zn233       O241   2.158       .  S
Zn233       O244   1.968       .  S
Zn234       O235   2.117       .  S
Zn234       O242   2.119       .  S
Zn234       O245   1.931       .  S
Zn234       O246   2.016   1_554  S
O235      Zn1551   2.017   1_554  S
O235      Zn1553   2.047   1_554  S
O236        C908   1.277       .  A
O237        C249   1.274       .  A
O238        C250   1.254       .  A
O239        C248   1.267       .  A
O240        C250   1.263       .  A
O241        C909   1.290       .  A
O242        C251   1.286       .  A
O243        C252   1.260       .  A
O244        C911   1.263       .  A
O245        C252   1.247       .  A
O246        C253   1.272       .  A
O247        C913   1.263       .  A
C248       O1556   1.268   1_554  A
C248        C517   1.471   1_554  S
C249       O1561   1.264       .  A
C249        C360   1.465       .  S
C250        C275   1.452       .  S
C251       O1564   1.282   1_554  A
C251        C301   1.493       .  S
C252        C273   1.456       .  S
C253       O1567   1.285       .  A
C253        C637   1.492       .  S
Zn254       O258   2.031       .  S
Zn254       O259   2.086       .  S
Zn254       O263   1.978       .  S
Zn254       O270   1.982       .  S
Zn255       O258   2.106       .  S
Zn255       O260   1.981       .  S
Zn255       O262   2.047       .  S
Zn255       O266   1.922       .  S
Zn256       O258   1.974       .  S
Zn256       O261   2.008       .  S
Zn256       O264   2.102       .  S
Zn256       O267   1.957       .  S
Zn257       O258   1.959       .  S
Zn257       O265   2.039       .  S
Zn257       O268   1.997       .  S
Zn257       O269   2.133       .  S
O259        C271   1.282       .  A
O260        C272   1.265       .  A
O261        C273   1.258       .  A
O262        C271   1.278       .  A
O263        C273   1.262       .  A
O264        C272   1.277       .  A
O265        C274   1.269       .  A
O266        C275   1.241       .  A
O267        C274   1.260       .  A
O268        C275   1.259       .  A
O269        C276   1.283       .  A
O270        C276   1.266       .  A
C271        C600   1.481       .  S
C272        C480   1.472       .  S
C274        C325   1.464       .  S
C276        C288   1.480       .  S
C277        C278   1.408       .  A
C277        C282   1.410       .  A
C278        C279   1.401       .  A
C278        H291   1.081       .  S
C279        C280   1.406       .  A
C279        H292   1.083       .  S
C280        C281   1.410       .  A
C280        C283   1.503       .  S
C281        C282   1.406       .  A
C281        H293   1.079       .  S
C282        H294   1.082       .  S
C283        C284   1.354       .  D
C283        H295   1.085       .  S
C284        C285   1.500       .  S
C284        H296   1.083       .  S
C285        C286   1.406       .  A
C285        C290   1.411       .  A
C286        C287   1.404       .  A
C286        H297   1.083       .  S
C287        C288   1.405       .  A
C287        H298   1.083       .  S
C288        C289   1.404       .  A
C289        C290   1.406       .  A
C289        H299   1.083       .  S
C290        H300   1.082       .  S
C301        C302   1.406       .  A
C301        C306   1.408   1_554  A
C302        C303   1.398       .  A
C302        H315   1.083       .  S
C303        C304   1.404       .  A
C303        H316   1.083       .  S
C304        C305   1.413   1_554  A
C304        C307   1.500       .  S
C305        C306   1.409       .  A
C305        H317   1.081       .  S
C306        H318   1.083       .  S
C307        C308   1.350   1_554  D
C307        H319   1.085       .  S
C308        C309   1.500       .  S
C308        H320   1.084       .  S
C309        C310   1.403       .  A
C309        C314   1.412   1_556  A
C310        C311   1.398       .  A
C310        H321   1.079       .  S
C311        C312   1.405       .  A
C311        H322   1.081       .  S
C312        C313   1.407   1_556  A
C313        C314   1.408       .  A
C313        H323   1.083       .  S
C314        H324   1.081       .  S
C325        C326   1.399       .  A
C325        C330   1.402       .  A
C326        C327   1.399       .  A
C326        H339   1.083       .  S
C327        C328   1.406       .  A
C327        H340   1.083       .  S
C328        C329   1.404       .  A
C328        C331   1.479       .  S
C329        C330   1.392       .  A
C329        H341   1.081       .  S
C330        H342   1.084       .  S
C331        C332   1.347       .  D
C331        H343   1.087       .  S
C332        C333   1.478       .  S
C332        H344   1.085       .  S
C333        C334   1.402       .  A
C333        C338   1.403       .  A
C334        C335   1.399       .  A
C334        H345   1.083       .  S
C335        C336   1.407       .  A
C335        H346   1.083       .  S
C336        C337   1.404       .  A
C337        C338   1.391       .  A
C337        H347   1.081       .  S
C338        H348   1.080       .  S
C349        C350   1.401       .  A
C349       C1674   1.398       .  A
C350       C1671   1.392       .  A
C350        H363   1.082       .  S
C351        C352   1.407       .  A
C351       C1010   1.409       .  A
C351        H364   1.080       .  S
C352        C353   1.411       .  A
C352        C355   1.516       .  S
C353        C354   1.416       .  A
C353        H365   1.082       .  S
C354       C1009   1.415       .  A
C354        H366   1.082       .  S
C355        C356   1.358       .  D
C355        H367   1.085       .  S
C356        C357   1.517       .  S
C356        H368   1.086       .  S
C357        C358   1.408       .  A
C357        C362   1.412       .  A
C358        C359   1.408       .  A
C358        H369   1.083       .  S
C359       C1020   1.410       .  A
C359        H370   1.083       .  S
C360       C1679   1.404       .  A
C360       C1681   1.401       .  A
C361        C362   1.418       .  A
C361       C1020   1.414       .  A
C361       H1031   1.082       .  S
C362        H372   1.082       .  S
H371       C1681   1.083       .  S
C373        C374   1.407       .  A
C373        C378   1.406       .  A
C374        C375   1.404       .  A
C374        H387   1.083   1_565  S
C375        C376   1.406       .  A
C375        H388   1.083   1_565  S
C376        C377   1.408       .  A
C376        C379   1.496       .  S
C377        C378   1.400       .  A
C377        H389   1.082       .  S
C378        H390   1.083       .  S
C379        C380   1.349       .  D
C379        H391   1.086   1_565  S
C380        C381   1.493       .  S
C380        H392   1.086       .  S
C381        C382   1.401       .  A
C381        C386   1.411   1_565  A
C382        C383   1.397       .  A
C382        H393   1.081       .  S
C383        C384   1.404   1_565  A
C383        H394   1.081       .  S
C384        C385   1.407       .  A
C385        C386   1.410       .  A
C385        H395   1.083       .  S
C386        H396   1.082       .  S
C397        C398   1.405       .  A
C397        C402   1.404       .  A
C398        C399   1.397       .  A
C398        H411   1.080       .  S
C399        C400   1.403       .  A
C399        H412   1.083       .  S
C400        C401   1.411       .  A
C400        C403   1.492       .  S
C401        C402   1.401       .  A
C401        H413   1.081       .  S
C402        H414   1.083       .  S
C403        C404   1.346       .  D
C403        H415   1.085       .  S
C404        C405   1.488       .  S
C404        H416   1.084       .  S
C405        C406   1.401       .  A
C405        C410   1.410       .  A
C406        C407   1.394       .  A
C406        H417   1.083       .  S
C407        C408   1.408       .  A
C407        H418   1.083       .  S
C408        C409   1.406       .  A
C409        C410   1.404       .  A
C409        H419   1.083       .  S
C410        H420   1.081       .  S
C421        C422   1.409       .  A
C421        C426   1.407       .  A
C422        C423   1.400       .  A
C422        H435   1.082       .  S
C423        C424   1.401       .  A
C423        H436   1.083       .  S
C424        C425   1.405       .  A
C424        C427   1.485       .  S
C425        C426   1.396       .  A
C425        H437   1.083       .  S
C426        H438   1.080       .  S
C427        C428   1.346       .  D
C427        H439   1.085       .  S
C428        C429   1.484       .  S
C428        H440   1.087       .  S
C429        C430   1.400       .  A
C429        C434   1.409       .  A
C430        C431   1.391       .  A
C430        H441   1.084       .  S
C431        C432   1.406       .  A
C431        H442   1.083       .  S
C432        C433   1.406       .  A
C433        C434   1.405       .  A
C433        H443   1.083       .  S
C434        H444   1.081       .  S
C445       C1106   1.405       .  A
C445       C1110   1.406   1_455  A
C446        C447   1.400       .  A
C446       C1765   1.403   1_556  A
C446        H459   1.083       .  S
C447        C448   1.405   1_556  A
C447        H460   1.083       .  S
C448        C449   1.407   1_455  A
C448        C451   1.490   1_455  S
C449        C450   1.400       .  A
C449        H461   1.080       .  S
C450       C1765   1.407   1_655  A
C450        H462   1.082       .  S
C451        C452   1.351       .  D
C451        H463   1.085   1_654  S
C452        C453   1.491       .  S
C452        H464   1.085       .  S
C453        C454   1.407       .  A
C453        C458   1.408       .  A
C454        C455   1.403       .  A
C454        H465   1.083       .  S
C455       C1776   1.402       .  A
C455        H466   1.083       .  S
C456       C1115   1.403       .  A
C456       C1117   1.405       .  A
C457        C458   1.397       .  A
C457       C1776   1.401       .  A
C457        H467   1.084       .  S
C458        H468   1.081   1_655  S
C469        C470   1.410       .  A
C469        C474   1.408       .  A
C470        C471   1.394       .  A
C470        H483   1.079       .  S
C471        C472   1.399       .  A
C471        H484   1.084       .  S
C472        C473   1.406       .  A
C472        C475   1.480       .  S
C473        C474   1.396       .  A
C473        H485   1.082       .  S
C474        H486   1.081       .  S
C475        C476   1.343       .  D
C475        H487   1.086       .  S
C476        C477   1.478       .  S
C476        H488   1.086       .  S
C477        C478   1.399       .  A
C477        C482   1.409       .  A
C478        C479   1.391       .  A
C478        H489   1.084       .  S
C479        C480   1.405       .  A
C479        H490   1.083       .  S
C480        C481   1.402       .  A
C481        C482   1.400       .  A
C481        H491   1.083       .  S
C482        H492   1.082       .  S
C493        C494   1.406       .  A
C493        C498   1.407       .  A
C494        C495   1.392       .  A
C494        H507   1.083       .  S
C495        C496   1.402       .  A
C495        H508   1.084       .  S
C496        C497   1.412       .  A
C496        C499   1.493       .  S
C497        C498   1.408       .  A
C497        H509   1.080       .  S
C498        H510   1.083       .  S
C499        C500   1.350       .  D
C499        H511   1.086       .  S
C500        C501   1.494       .  S
C500        H512   1.084       .  S
C501        C502   1.404       .  A
C501        C506   1.408       .  A
C502        C503   1.403       .  A
C502        H513   1.083       .  S
C503        C504   1.409       .  A
C503        H514   1.082       .  S
C504        C505   1.407       .  A
C505        C506   1.398       .  A
C505        H515   1.080       .  S
C506        H516   1.082       .  S
C517       C1838   1.403   1_556  A
C517       C1842   1.400       .  A
C518        C519   1.395       .  A
C518       C1177   1.402       .  A
C518        H531   1.084       .  S
C519        C520   1.404       .  A
C519        H532   1.084       .  S
C520        C521   1.407       .  A
C520        C523   1.481       .  S
C521        C522   1.399       .  A
C521        H533   1.082       .  S
C522       C1177   1.404       .  A
C522        H534   1.083       .  S
C523        C524   1.349       .  D
C523        H535   1.085       .  S
C524        C525   1.485       .  S
C524        H536   1.086       .  S
C525        C526   1.403       .  A
C525        C530   1.406       .  A
C526        C527   1.391       .  A
C526        H537   1.082       .  S
C527       C1188   1.411       .  A
C527        H538   1.081       .  S
C528       C1847   1.410       .  A
C528       C1849   1.408   1_556  A
C529        C530   1.402       .  A
C529       C1188   1.406       .  A
C529        H539   1.081       .  S
C530        H540   1.083       .  S
C541        C542   1.408       .  A
C541        C546   1.410       .  A
C542        C543   1.397       .  A
C542        H555   1.081       .  S
C543        C544   1.402       .  A
C543        H556   1.083       .  S
C544        C545   1.408       .  A
C544        C547   1.490       .  S
C545        C546   1.403       .  A
C545        H557   1.082       .  S
C546        H558   1.081       .  S
C547        C548   1.348       .  D
C547        H559   1.086       .  S
C548        C549   1.488       .  S
C548        H560   1.085       .  S
C549        C550   1.404       .  A
C549        C554   1.408       .  A
C550        C551   1.401       .  A
C550        H561   1.083       .  S
C551        C552   1.404       .  A
C551        H562   1.083       .  S
C552        C553   1.404       .  A
C553        C554   1.400       .  A
C553        H563   1.083       .  S
C554        H564   1.082       .  S
C565        C566   1.399       .  A
C565        C570   1.400       .  A
C566        C567   1.398       .  A
C566        H579   1.083       .  S
C567        C568   1.407       .  A
C567        H580   1.083       .  S
C568        C569   1.411       .  A
C568        C571   1.493       .  S
C569        C570   1.401       .  A
C569        H581   1.079       .  S
C570        H582   1.083       .  S
C571        C572   1.350       .  D
C571        H583   1.084       .  S
C572        C573   1.491       .  S
C572        H584   1.083       .  S
C573        C574   1.405       .  A
C573        C578   1.409       .  A
C574        C575   1.400       .  A
C574        H585   1.083       .  S
C575        C576   1.404       .  A
C575        H586   1.082       .  S
C576        C577   1.402       .  A
C577        C578   1.399       .  A
C577        H587   1.083       .  S
C578        H588   1.081       .  S
C589        C590   1.409       .  A
C589        C594   1.412       .  A
C590        C591   1.399       .  A
C590        H603   1.080       .  S
C591        C592   1.403       .  A
C591        H604   1.083       .  S
C592        C593   1.406       .  A
C592        C595   1.490       .  S
C593        C594   1.399       .  A
C593        H605   1.081       .  S
C594        H606   1.080       .  S
C595        C596   1.350       .  D
C595        H607   1.086       .  S
C596        C597   1.488       .  S
C596        H608   1.084       .  S
C597        C598   1.405       .  A
C597        C602   1.407       .  A
C598        C599   1.401       .  A
C598        H609   1.083       .  S
C599        C600   1.405       .  A
C599        H610   1.083       .  S
C600        C601   1.406       .  A
C601        C602   1.397       .  A
C601        H611   1.083       .  S
C602        H612   1.082       .  S
C613       C1274   1.401       .  A
C613       C1278   1.403       .  A
C614        C615   1.390       .  A
C614       C1933   1.408   1_554  A
C614       H1947   1.079       .  S
C615        C616   1.397   1_554  A
C615        H628   1.084       .  S
C616        C617   1.406       .  A
C616        C619   1.473       .  S
C617        C618   1.397       .  A
C617        H629   1.082       .  S
C618       C1933   1.405       .  A
C618        H630   1.082       .  S
C619        C620   1.343       .  D
C619        H631   1.083       .  S
C620        C621   1.481       .  S
C620        H632   1.086       .  S
C621        C622   1.402       .  A
C621        C626   1.409       .  A
C622        C623   1.394       .  A
C622        H633   1.083       .  S
C623       C1944   1.404       .  A
C623        H634   1.083       .  S
C624       C1283   1.407       .  A
C624       C1285   1.405       .  A
C625        C626   1.393       .  A
C625       C1944   1.401       .  A
C625        H635   1.083       .  S
C626        H636   1.080       .  S
H627       C1274   1.083       .  S
C637       C1958   1.406       .  A
C637       C1962   1.409       .  A
C638        C639   1.395       .  A
C638       C1297   1.402       .  A
C638        H651   1.083       .  S
C639        C640   1.403       .  A
C639        H652   1.084       .  S
C640        C641   1.408       .  A
C640        C643   1.483       .  S
C641        C642   1.398       .  A
C641        H653   1.081       .  S
C642       C1297   1.403       .  A
C642        H654   1.083       .  S
C643        C644   1.346       .  D
C643        H655   1.087       .  S
C644        C645   1.479       .  S
C644        H656   1.084       .  S
C645        C646   1.399       .  A
C645        C650   1.404       .  A
C646        C647   1.397       .  A
C646        H657   1.083       .  S
C647       C1308   1.410       .  A
C647        H658   1.082       .  S
C648       C1967   1.407       .  A
C648       C1969   1.413   1_556  A
C649        C650   1.395       .  A
C649       C1308   1.406       .  A
C649        H659   1.079       .  S
C650        H660   1.083       .  S
C661        C663   1.560       .  S
C661        C665   1.564       .  S
C661        C664   1.540       .  S
C661        C685   1.660       .  S
C662        C666   1.563       .  S
C662        C668   1.565       .  S
C662        C667   1.532       .  S
C662        C684   1.665       .  S
C663        C671   1.386       .  A
C663       C1326   1.422       .  A
C664        C675   1.367       .  A
C664       C1327   1.405       .  A
C665        C679   1.383       .  A
C665       C1328   1.429       .  A
C666        C669   1.387       .  A
C667        C673   1.369       .  A
C668        C676   1.388       .  A
C669        H682   1.077       .  S
N670       C1329   1.356       .  A
N670        C671   1.361       .  A
N670        N808   1.420       .  S
C671        H672   1.078       .  S
C673        H683   1.080       .  S
C673        N674   1.357       .  A
N674       C1308   1.444       .  S
C675        H681   1.080       .  S
C675       N1334   1.358       .  A
C676        H678   1.078       .  S
N677       C1336   1.361       .  A
N677        C679   1.361       .  A
N677       C1273   1.460       .  S
C679        H680   1.077       .  S
C684        C686   1.555       .  S
C684        C688   1.557       .  S
C684        C687   1.579       .  S
C685        C689   1.547       .  S
C685        C691   1.554       .  S
C685        C690   1.577       .  S
C686        C694   1.386       .  A
C686        C689   1.406       .  A
C687        C698   1.405       .  A
C687        C690   1.428       .  A
C688        C702   1.381       .  A
C688        C691   1.415       .  A
C689        C692   1.382       .  A
C690        C696   1.397       .  A
C691        C699   1.383       .  A
C692        H705   1.080       .  S
C692        N693   1.361       .  A
N693        C694   1.363       .  A
N693        N831   1.423       .  S
C694        H695   1.080       .  S
C696        H706   1.080       .  S
C696        N697   1.367       .  A
N697        C698   1.369       .  A
N697       C1249   1.477       .  S
C698        H704   1.081       .  S
C699        H701   1.081       .  S
C699        N700   1.359       .  A
N700        C702   1.362       .  A
N700       C1236   1.449       .  S
C702        H703   1.080       .  S
C707        C709   1.536       .  S
C707        C711   1.567       .  S
C707        C710   1.552       .  S
C707        C731   1.693       .  S
C708        C712   1.557       .  S
C708        C714   1.542       .  S
C708        C713   1.552       .  S
C708        C730   1.698       .  S
C709        C717   1.401       .  A
C710        C721   1.373       .  A
C711        C725   1.388       .  A
C712       C1369   1.411       .  A
C712        C715   1.358       .  A
C713       C1370   1.424       .  A
C713        C719   1.371       .  A
C714       C1371   1.423       .  A
C714        C722   1.376       .  A
C715        H728   1.033       .  S
C715        N716   1.350       .  A
N716       C1377   1.356       .  A
N716        N854   1.415       .  S
C717        H718   1.079       .  S
C719        H729   1.081       .  S
C719        N720   1.356       .  A
N720       C1381   1.360       .  A
N720       C1201   1.439       .  S
C721        H727   1.079       .  S
C722        H724   1.082       .  S
C722       N1383   1.350       .  A
N723        C725   1.354       .  A
N723       C1188   1.446       .  S
C725        H726   1.080       .  S
C730        C732   1.587       .  S
C730        C734   1.580       .  S
C730        C733   1.555       .  S
C731        C735   1.548       .  S
C731        C737   1.552       .  S
C731        C736   1.538       .  S
C732        C740   1.394       .  A
C732        C735   1.445       .  A
C733        C744   1.382       .  A
C733        C736   1.412       .  A
C734        C748   1.379       .  A
C734        C737   1.429       .  A
C735        C738   1.386       .  A
C736        C742   1.373       .  A
C737        C745   1.378       .  A
C738        H751   1.078       .  S
C738        N739   1.326       .  A
N739        C740   1.343       .  A
N739        N877   1.412       .  S
C740        H741   1.077       .  S
C742        H752   1.080       .  S
C742        N743   1.351       .  A
N743        C744   1.355       .  A
N743       C1164   1.434       .  S
C744        H750   1.078       .  S
C745        H747   1.080       .  S
C745        N746   1.360       .  A
N746        C748   1.357       .  A
N746       C1129   1.447       .  S
C748        H749   1.077       .  S
Zn753       O757   2.013       .  S
Zn753       O758   2.016   1_655  S
Zn753       O762   2.040       .  S
Zn753       O769   1.948       .  S
Zn754       O759   1.993   1_565  S
Zn754       O761   1.984   1_655  S
Zn754       O765   2.117       .  S
Zn755       O757   2.089       .  S
Zn755       O760   2.247       .  S
Zn755       O763   2.113   1_565  S
Zn755       O766   1.979       .  S
Zn756       O764   2.073       .  S
Zn756       O767   2.705       .  S
Zn756       O768   2.091       .  S
O757      Zn1414   2.052       .  S
O757      Zn1416   2.186       .  S
O758        C770   1.278       .  A
O760        C772   1.368       .  A
O762        C772   1.369       .  A
O763        C771   1.284       .  A
O765        C774   1.278       .  A
O766        C773   1.267       .  A
O767        C774   1.296       .  A
O769        C775   1.259       .  A
C770       O1421   1.280       .  A
C770       C1092   1.477       .  S
C771       O1419   1.281       .  A
C771       C1284   1.488       .  S
C772        C794   1.494       .  S
C773       O1424   1.277       .  A
C773       C1212   1.477       .  S
C774        C798   1.503       .  S
C775       O1428   1.278       .  A
C775       C1116   1.473       .  S
Zn776       O780   2.050       .  S
Zn776       O781   1.949   1_565  S
Zn776       O785   2.101       .  S
Zn776       O792   2.165       .  S
Zn777       O780   2.190       .  S
Zn777       O782   2.694       .  S
Zn777       O784   2.096       .  S
Zn777       O788   2.061       .  S
Zn778       O780   2.042       .  S
Zn778       O783   1.941       .  S
Zn778       O786   2.130       .  S
Zn778       O789   1.954       .  S
Zn779       O780   2.061       .  S
Zn779       O787   2.139       .  S
Zn779       O790   1.958   1_655  S
Zn779       O791   2.150       .  S
O781        C793   1.259       .  A
O782        C794   1.299       .  A
O783        C795   1.270       .  A
O784        C793   1.277   1_565  A
O785        C795   1.283       .  A
O786        C794   1.279       .  A
O787        C796   1.288       .  A
O788        C797   1.278   1_655  A
O789        C796   1.270       .  A
O790        C797   1.265       .  A
O791        C798   1.379       .  A
O792        C798   1.375       .  A
C793       C1225   1.478       .  S
C795       C1153   1.475       .  S
C796       C1068   1.491       .  S
C797       C1033   1.486       .  S
C799        C801   1.548   1_455  S
C799        C803   1.558       .  S
C799        C802   1.567       .  S
C799        C823   1.674       .  S
C800        C804   1.555   1_455  S
C800        C806   1.560       .  S
C800        C805   1.568       .  S
C800        C822   1.674       .  S
C801        C809   1.380       .  A
C801       C1464   1.411       .  A
C802        C813   1.391       .  A
C802       C1465   1.432       .  A
C803        C817   1.379       .  A
C803       C1466   1.418       .  A
C804        C807   1.385       .  A
C805        C811   1.392       .  A
C806        C814   1.385       .  A
C807        H820   1.080       .  S
N808       C1467   1.363       .  A
N808        C809   1.360       .  A
C809        H810   1.080       .  S
C811        H821   1.080       .  S
C811        N812   1.364       .  A
N812       C1009   1.468       .  S
C813        H819   1.079       .  S
C813       N1472   1.365       .  A
C814        H816   1.082       .  S
N815       C1474   1.360       .  A
N815        C817   1.362       .  A
N815       C1105   1.450       .  S
C817        H818   1.080       .  S
C822        C824   1.558       .  S
C822        C826   1.560   1_455  S
C822        C825   1.543       .  S
C823        C827   1.563       .  S
C823        C829   1.562   1_455  S
C823        C828   1.535       .  S
C824        C832   1.385   1_455  A
C824        C827   1.432       .  A
C825        C836   1.372       .  A
C825        C828   1.405       .  A
C826        C840   1.380       .  A
C826        C829   1.440       .  A
C827        C830   1.387   1_455  A
C828        C834   1.367       .  A
C829        C837   1.384       .  A
C830        H843   1.077       .  S
C830        N831   1.359       .  A
N831        C832   1.357       .  A
C832        H833   1.077       .  S
C834        H844   1.079       .  S
C834        N835   1.359       .  A
N835        C836   1.362       .  A
N835        C996   1.442       .  S
C836        H842   1.080       .  S
C837        H839   1.079       .  S
C837        N838   1.353       .  A
N838        C840   1.350       .  A
N838       C1057   1.436       .  S
C840        H841   1.079       .  S
C845        C847   1.557   1_545  S
C845        C849   1.563       .  S
C845        C848   1.560   1_545  S
C845        C869   1.739       .  S
C846        C850   1.575       .  S
C846        C852   1.563   1_565  S
C846        C851   1.560       .  S
C846        C868   1.687       .  S
C847        C855   1.377       .  A
C848        C859   1.381       .  A
C849        C863   1.381       .  A
C850       C1507   1.427       .  A
C850        C853   1.388       .  A
C851       C1508   1.434       .  A
C851        C857   1.377       .  A
C852       C1509   1.415       .  A
C852        C860   1.380       .  A
C853        H866   1.071       .  S
C853        N854   1.356       .  A
N854       C1515   1.338       .  A
C855        H856   1.075       .  S
C857        H867   1.079       .  S
C857        N858   1.358       .  A
N858       C1519   1.359       .  A
N858       C1081   1.447       .  S
C859        H865   1.079       .  S
C860        H862   1.077       .  S
C860       N1521   1.353       .  A
N861        C863   1.347       .  A
N861        C972   1.445       .  S
C863        H864   1.074       .  S
C868        C870   1.553       .  S
C868        C872   1.578   1_565  S
C868        C871   1.545       .  S
C869        C873   1.564   1_545  S
C869        C875   1.570       .  S
C869        C874   1.554       .  S
C870        C878   1.369       .  A
C870        C873   1.432       .  A
C871        C882   1.373       .  A
C871        C874   1.417   1_565  A
C872        C886   1.380       .  A
C872        C875   1.443       .  A
C873        C876   1.398       .  A
C874        C880   1.380       .  A
C875        C883   1.386       .  A
C876        H889   1.080       .  S
C876        N877   1.342       .  A
N877        C878   1.348       .  A
C878        H879   1.057       .  S
C880        H890   1.081       .  S
C880        N881   1.363       .  A
N881        C882   1.358   1_545  A
N881       C1044   1.447       .  S
C882        H888   1.080       .  S
C883        H885   1.076       .  S
C883        N884   1.349       .  A
N884        C886   1.348       .  A
N884        C937   1.436       .  S
C886        H887   1.079       .  S
Zn891      O1555   1.949       .  S
Zn891       O896   2.091       .  S
Zn891       O900   1.997       .  S
Zn891       O907   2.011       .  S
Zn892       O895   2.130       .  S
Zn892       O897   2.175       .  S
Zn892       O899   2.032       .  S
Zn892       O903   2.014       .  S
Zn893      O1555   2.043       .  S
Zn893       O898   1.902       .  S
Zn893       O901   2.019       .  S
Zn893       O904   1.961       .  S
Zn894       O895   1.962       .  S
Zn894       O902   2.136       .  S
Zn894       O905   2.040       .  S
Zn894       O906   2.031       .  S
O896       C1568   1.276       .  A
O897        C909   1.292       .  A
O898        C910   1.252       .  A
O899        C908   1.277       .  A
O900        C910   1.264       .  A
O901       C1569   1.272       .  A
O902        C911   1.282       .  A
O903        C912   1.258       .  A
O904       C1571   1.264       .  A
O905        C912   1.264       .  A
O906        C913   1.269       .  A
O907       C1573   1.266       .  A
C908       C1177   1.470       .  S
C909       C1020   1.517       .  S
C910        C935   1.470       .  S
C911        C961   1.485       .  S
C912        C933   1.463       .  S
C913       C1297   1.471       .  S
Zn914       O918   2.029       .  S
Zn914       O919   2.168       .  S
Zn914       O923   1.982       .  S
Zn914       O930   2.023       .  S
Zn915       O918   2.044       .  S
Zn915       O920   2.065       .  S
Zn915       O922   2.212       .  S
Zn915       O926   2.038       .  S
Zn916       O918   1.961       .  S
Zn916       O921   1.904       .  S
Zn916       O924   2.001       .  S
Zn916       O927   1.933       .  S
Zn917       O918   2.065       .  S
Zn917       O925   2.013       .  S
Zn917       O928   1.979       .  S
Zn917       O929   2.080       .  S
O919        C931   1.287       .  A
O920        C932   1.276       .  A
O921        C933   1.258       .  A
O922        C931   1.294       .  A
O923        C933   1.260       .  A
O924        C932   1.269       .  A
O925        C934   1.266       .  A
O926        C935   1.262       .  A
O927        C934   1.260       .  A
O928        C935   1.267       .  A
O929        C936   1.277       .  A
O930        C936   1.272       .  A
C931       C1260   1.527       .  S
C932       C1140   1.481       .  S
C934        C985   1.462       .  S
C936        C948   1.485       .  S
C937        C938   1.403       .  A
C937        C942   1.401       .  A
C938        C939   1.397       .  A
C938        H951   1.083       .  S
C939        C940   1.403       .  A
C939        H952   1.083       .  S
C940        C941   1.410       .  A
C940        C943   1.489       .  S
C941        C942   1.402       .  A
C941        H953   1.082       .  S
C942        H954   1.083       .  S
C943        C944   1.348       .  D
C943        H955   1.082       .  S
C944        C945   1.494       .  S
C944        H956   1.086       .  S
C945        C946   1.402       .  A
C945        C950   1.413       .  A
C946        C947   1.394       .  A
C946        H957   1.083       .  S
C947        C948   1.406       .  A
C947        H958   1.083       .  S
C948        C949   1.404       .  A
C949        C950   1.405       .  A
C949        H959   1.083       .  S
C950        H960   1.079       .  S
C961        C962   1.406       .  A
C961        C966   1.404       .  A
C962        C963   1.397       .  A
C962        H975   1.084       .  S
C963        C964   1.403       .  A
C963        H976   1.083       .  S
C964        C965   1.415       .  A
C964        C967   1.500       .  S
C965        C966   1.410       .  A
C965        H977   1.080       .  S
C966        H978   1.083       .  S
C967        C968   1.350       .  D
C967        H979   1.086       .  S
C968        C969   1.496       .  S
C968        H980   1.084       .  S
C969        C970   1.403       .  A
C969        C974   1.412       .  A
C970        C971   1.399       .  A
C970        H981   1.083       .  S
C971        C972   1.406       .  A
C971        H982   1.082       .  S
C972        C973   1.405       .  A
C973        C974   1.409       .  A
C973        H983   1.083       .  S
C974        H984   1.082       .  S
C985        C986   1.401       .  A
C985        C990   1.404       .  A
C986        C987   1.396       .  A
C986        H999   1.083       .  S
C987        C988   1.404       .  A
C987       H1000   1.084       .  S
C988        C989   1.402       .  A
C988        C991   1.469       .  S
C989        C990   1.385       .  A
C989       H1001   1.082       .  S
C990       H1002   1.084       .  S
C991        C992   1.345       .  D
C991       H1003   1.088       .  S
C992        C993   1.458       .  S
C992       H1004   1.084       .  S
C993        C994   1.396       .  A
C993        C998   1.396       .  A
C994        C995   1.393       .  A
C994       H1005   1.084       .  S
C995        C996   1.409       .  A
C995       H1006   1.081       .  S
C996        C997   1.410       .  A
C997        C998   1.389       .  A
C997       H1007   1.079       .  S
C998       H1008   1.083       .  S
C1009      C1010   1.412       .  A
C1010      H1023   1.081       .  S
C1011      C1670   1.410       .  A
C1011      C1012   1.407       .  A
C1011      H1024   1.082       .  S
C1012      C1013   1.410       .  A
C1012      C1015   1.514       .  S
C1013      C1014   1.412       .  A
C1013      H1025   1.081       .  S
C1014      C1669   1.415       .  A
C1014      H1026   1.081       .  S
C1015      C1016   1.357       .  D
C1015      H1027   1.086       .  S
C1016      C1017   1.510       .  S
C1016      H1028   1.085       .  S
C1017      C1018   1.405       .  A
C1017      C1022   1.414       .  A
C1018      C1019   1.402       .  A
C1018      H1029   1.083       .  S
C1019      C1680   1.408       .  A
C1019      H1030   1.083       .  S
C1021      C1680   1.411       .  A
C1021      C1022   1.419       .  A
C1021      H1691   1.083       .  S
C1022      H1032   1.082       .  S
C1033      C1034   1.406       .  A
C1033      C1038   1.407       .  A
C1034      C1035   1.404       .  A
C1034      H1047   1.082       .  S
C1035      C1036   1.405       .  A
C1035      H1048   1.083   1_565  S
C1036      C1037   1.404       .  A
C1036      C1039   1.485       .  S
C1037      C1038   1.390       .  A
C1037      H1049   1.082       .  S
C1038      H1050   1.083       .  S
C1039      C1040   1.349       .  D
C1039      H1051   1.083   1_565  S
C1040      C1041   1.487       .  S
C1040      H1052   1.086       .  S
C1041      C1042   1.404       .  A
C1041      C1046   1.407   1_565  A
C1042      C1043   1.395       .  A
C1042      H1053   1.084       .  S
C1043      C1044   1.405   1_565  A
C1043      H1054   1.080       .  S
C1044      C1045   1.410       .  A
C1045      C1046   1.399       .  A
C1045      H1055   1.081       .  S
C1046      H1056   1.080       .  S
C1057      C1058   1.404       .  A
C1057      C1062   1.398       .  A
C1058      C1059   1.399       .  A
C1058      H1071   1.083   1_655  S
C1059      C1060   1.403       .  A
C1059      H1072   1.083   1_655  S
C1060      C1061   1.414       .  A
C1060      C1063   1.496       .  S
C1061      C1062   1.403       .  A
C1061      H1073   1.081       .  S
C1062      H1074   1.083       .  S
C1063      C1064   1.347       .  D
C1063      H1075   1.085       .  S
C1064      C1065   1.491       .  S
C1064      H1076   1.085       .  S
C1065      C1066   1.398       .  A
C1065      C1070   1.414       .  A
C1066      C1067   1.388       .  A
C1066      H1077   1.084       .  S
C1067      C1068   1.408       .  A
C1067      H1078   1.083       .  S
C1068      C1069   1.408       .  A
C1069      C1070   1.414       .  A
C1069      H1079   1.083       .  S
C1070      H1080   1.081       .  S
C1081      C1082   1.407       .  A
C1081      C1086   1.411       .  A
C1082      C1083   1.396       .  A
C1082      H1095   1.082       .  S
C1083      C1084   1.402       .  A
C1083      H1096   1.084       .  S
C1084      C1085   1.405       .  A
C1084      C1087   1.481       .  S
C1085      C1086   1.396       .  A
C1085      H1097   1.082       .  S
C1086      H1098   1.080       .  S
C1087      C1088   1.345       .  D
C1087      H1099   1.087       .  S
C1088      C1089   1.478       .  S
C1088      H1100   1.085       .  S
C1089      C1090   1.405       .  A
C1089      C1094   1.401       .  A
C1090      C1091   1.392       .  A
C1090      H1101   1.083       .  S
C1091      C1092   1.403       .  A
C1091      H1102   1.083       .  S
C1092      C1093   1.407       .  A
C1093      C1094   1.399       .  A
C1093      H1103   1.083       .  S
C1094      H1104   1.083       .  S
C1105      C1766   1.408       .  A
C1105      C1770   1.406   1_455  A
C1106      C1107   1.402       .  A
C1106      H1119   1.083       .  S
C1107      C1108   1.405       .  A
C1107      H1120   1.083       .  S
C1108      C1109   1.407   1_455  A
C1108      C1111   1.494       .  S
C1109      C1110   1.403       .  A
C1109      H1121   1.079       .  S
C1110      H1122   1.082       .  S
C1111      C1112   1.352   1_455  D
C1111      H1123   1.086       .  S
C1112      C1113   1.496       .  S
C1112      H1124   1.086       .  S
C1113      C1114   1.408       .  A
C1113      C1118   1.408       .  A
C1114      C1115   1.406       .  A
C1114      H1125   1.083       .  S
C1115      H1126   1.083       .  S
C1116      C1775   1.400       .  A
C1116      C1777   1.403       .  A
C1117      C1118   1.402       .  A
C1117      H1127   1.083   1_655  S
C1118      H1128   1.082   1_655  S
C1129      C1130   1.409       .  A
C1129      C1134   1.408       .  A
C1130      C1131   1.402       .  A
C1130      H1143   1.082       .  S
C1131      C1132   1.404       .  A
C1131      H1144   1.083       .  S
C1132      C1133   1.405       .  A
C1132      C1135   1.488       .  S
C1133      C1134   1.397       .  A
C1133      H1145   1.082       .  S
C1134      H1146   1.081       .  S
C1135      C1136   1.351       .  D
C1135      H1147   1.085       .  S
C1136      C1137   1.491       .  S
C1136      H1148   1.086       .  S
C1137      C1138   1.408       .  A
C1137      C1142   1.406       .  A
C1138      C1139   1.403       .  A
C1138      H1149   1.083       .  S
C1139      C1140   1.402       .  A
C1139      H1150   1.083       .  S
C1140      C1141   1.406       .  A
C1141      C1142   1.398       .  A
C1141      H1151   1.083       .  S
C1142      H1152   1.081       .  S
C1153      C1154   1.403       .  A
C1153      C1158   1.403       .  A
C1154      C1155   1.386       .  A
C1154      H1167   1.083       .  S
C1155      C1156   1.405       .  A
C1155      H1168   1.078       .  S
C1156      C1157   1.408       .  A
C1156      C1159   1.488       .  S
C1157      C1158   1.404       .  A
C1157      H1169   1.083       .  S
C1158      H1170   1.083       .  S
C1159      C1160   1.350       .  D
C1159      H1171   1.087       .  S
C1160      C1161   1.472       .  S
C1160      H1172   1.081       .  S
C1161      C1162   1.402       .  A
C1161      C1166   1.403       .  A
C1162      C1163   1.395       .  A
C1162      H1173   1.083       .  S
C1163      C1164   1.407       .  A
C1163      H1174   1.080       .  S
C1164      C1165   1.402       .  A
C1165      C1166   1.396       .  A
C1165      H1175   1.083       .  S
C1166      H1176   1.083       .  S
C1178      C1837   1.403       .  A
C1178      C1179   1.391       .  A
C1178      H1191   1.083       .  S
C1179      C1180   1.401       .  A
C1179      H1192   1.084       .  S
C1180      C1181   1.412       .  A
C1180      C1183   1.487       .  S
C1181      C1182   1.407       .  A
C1181      H1193   1.081       .  S
C1182      C1837   1.404       .  A
C1182      H1194   1.083       .  S
C1183      C1184   1.347       .  D
C1183      H1195   1.081       .  S
C1184      C1185   1.495       .  S
C1184      H1196   1.084       .  S
C1185      C1186   1.405       .  A
C1185      C1190   1.413       .  A
C1186      C1187   1.398       .  A
C1186      H1197   1.083       .  S
C1187      C1848   1.406       .  A
C1187      H1198   1.082       .  S
C1189      C1848   1.400       .  A
C1189      C1190   1.397       .  A
C1189      H1199   1.082       .  S
C1190      H1200   1.078       .  S
C1201      C1202   1.405       .  A
C1201      C1206   1.405       .  A
C1202      C1203   1.393       .  A
C1202      H1215   1.082       .  S
C1203      C1204   1.400       .  A
C1203      H1216   1.084       .  S
C1204      C1205   1.406       .  A
C1204      C1207   1.478       .  S
C1205      C1206   1.399       .  A
C1205      H1217   1.082       .  S
C1206      H1218   1.082       .  S
C1207      C1208   1.346       .  D
C1207      H1219   1.082       .  S
C1208      C1209   1.487       .  S
C1208      H1220   1.086       .  S
C1209      C1210   1.404       .  A
C1209      C1214   1.409       .  A
C1210      C1211   1.396       .  A
C1210      H1221   1.083       .  S
C1211      C1212   1.404       .  A
C1211      H1222   1.083       .  S
C1212      C1213   1.403       .  A
C1213      C1214   1.394       .  A
C1213      H1223   1.083       .  S
C1214      H1224   1.079       .  S
C1225      C1226   1.402       .  A
C1225      C1230   1.404       .  A
C1226      C1227   1.406       .  A
C1226      H1239   1.083       .  S
C1227      C1228   1.409       .  A
C1227      H1240   1.083       .  S
C1228      C1229   1.410       .  A
C1228      C1231   1.500       .  S
C1229      C1230   1.401       .  A
C1229      H1241   1.081       .  S
C1230      H1242   1.084       .  S
C1231      C1232   1.353       .  D
C1231      H1243   1.083       .  S
C1232      C1233   1.499       .  S
C1232      H1244   1.084       .  S
C1233      C1234   1.405       .  A
C1233      C1238   1.412       .  A
C1234      C1235   1.398       .  A
C1234      H1245   1.084       .  S
C1235      C1236   1.404       .  A
C1235      H1246   1.079       .  S
C1236      C1237   1.408       .  A
C1237      C1238   1.407       .  A
C1237      H1247   1.082       .  S
C1238      H1248   1.080       .  S
C1249      C1250   1.411       .  A
C1249      C1254   1.419       .  A
C1250      C1251   1.414       .  A
C1250      H1263   1.082       .  S
C1251      C1252   1.411       .  A
C1251      H1264   1.083       .  S
C1252      C1253   1.416       .  A
C1252      C1255   1.533       .  S
C1253      C1254   1.426       .  A
C1253      H1265   1.081       .  S
C1254      H1266   1.082       .  S
C1255      C1256   1.367       .  D
C1255      H1267   1.085       .  S
C1256      C1257   1.532       .  S
C1256      H1268   1.086       .  S
C1257      C1258   1.411       .  A
C1257      C1262   1.416       .  A
C1258      C1259   1.415       .  A
C1258      H1269   1.083       .  S
C1259      C1260   1.412       .  A
C1259      H1270   1.083       .  S
C1260      C1261   1.415       .  A
C1261      C1262   1.425       .  A
C1261      H1271   1.082       .  S
C1262      H1272   1.082       .  S
C1273      C1934   1.411       .  A
C1273      C1938   1.415       .  A
C1274      C1275   1.396       .  A
C1275      C1276   1.404       .  A
C1275      H1288   1.083       .  S
C1276      C1277   1.415       .  A
C1276      C1279   1.500       .  S
C1277      C1278   1.410       .  A
C1277      H1289   1.080       .  S
C1278      H1290   1.083       .  S
C1279      C1280   1.351       .  D
C1279      H1291   1.083       .  S
C1280      C1281   1.502       .  S
C1280      H1292   1.083       .  S
C1281      C1282   1.405       .  A
C1281      C1286   1.414       .  A
C1282      C1283   1.400       .  A
C1282      H1293   1.083       .  S
C1283      H1294   1.083       .  S
C1284      C1943   1.404       .  A
C1284      C1945   1.407       .  A
C1285      C1286   1.406       .  A
C1285      H1295   1.083       .  S
C1286      H1296   1.079       .  S
H1287      C1934   1.080       .  S
C1298      C1957   1.404       .  A
C1298      C1299   1.396       .  A
C1298      H1311   1.083       .  S
C1299      C1300   1.402       .  A
C1299      H1312   1.083       .  S
C1300      C1301   1.402       .  A
C1300      C1303   1.467       .  S
C1301      C1302   1.384       .  A
C1301      H1313   1.082       .  S
C1302      C1957   1.402       .  A
C1302      H1314   1.083       .  S
C1303      C1304   1.344       .  D
C1303      H1315   1.087       .  S
C1304      C1305   1.467       .  S
C1304      H1316   1.086       .  S
C1305      C1306   1.400       .  A
C1305      C1310   1.401       .  A
C1306      C1307   1.397       .  A
C1306      H1317   1.083       .  S
C1307      C1968   1.408       .  A
C1307      H1318   1.082       .  S
C1309      C1968   1.406       .  A
C1309      C1310   1.384       .  A
C1309      H1319   1.079       .  S
C1310      H1320   1.083       .  S
C1321      C1323   1.545       .  S
C1321      C1325   1.542       .  S
C1321      C1324   1.565       .  S
C1321      C1345   1.668       .  S
C1322      C1326   1.551       .  S
C1322      C1328   1.555       .  S
C1322      C1327   1.539       .  S
C1322      C1344   1.654       .  S
C1323      C1331   1.372       .  A
C1324      C1335   1.377       .  A
C1325      C1339   1.376       .  A
C1326      C1329   1.379       .  A
C1327      C1333   1.372       .  A
C1328      C1336   1.382       .  A
C1329      H1342   1.078       .  S
N1330      C1331   1.358   1_554  A
N1330      N1468   1.419       .  S
C1331      H1332   1.079       .  S
C1333      H1343   1.081       .  S
C1333      N1334   1.359       .  A
N1334      C1968   1.438       .  S
C1335      H1341   1.080       .  S
C1336      H1338   1.079       .  S
N1337      C1339   1.342       .  A
N1337      C1933   1.440       .  S
C1339      H1340   1.081       .  S
C1344      C1346   1.555       .  S
C1344      C1348   1.549       .  S
C1344      C1347   1.546       .  S
C1345      C1349   1.560       .  S
C1345      C1351   1.568       .  S
C1345      C1350   1.560       .  S
C1346      C1354   1.381       .  A
C1346      C1349   1.423       .  A
C1347      C1358   1.377       .  A
C1347      C1350   1.415       .  A
C1348      C1362   1.380       .  A
C1348      C1351   1.411       .  A
C1349      C1352   1.383       .  A
C1350      C1356   1.382       .  A
C1351      C1359   1.390       .  A
C1352      H1365   1.079       .  S
C1352      N1353   1.363       .  A
N1353      C1354   1.361       .  A
N1353      N1491   1.422       .  S
C1354      H1355   1.080       .  S
C1356      H1366   1.079       .  S
C1356      N1357   1.360       .  A
N1357      C1358   1.358       .  A
N1357      C1909   1.448       .  S
C1358      H1364   1.081       .  S
C1359      H1361   1.079       .  S
C1359      N1360   1.365       .  A
N1360      C1362   1.363       .  A
N1360      C1896   1.460       .  S
C1362      H1363   1.080       .  S
C1367      C1369   1.544       .  S
C1367      C1371   1.569       .  S
C1367      C1370   1.565       .  S
C1367      C1391   1.666       .  S
C1368      C1372   1.562       .  S
C1368      C1374   1.540       .  S
C1368      C1373   1.547       .  S
C1368      C1390   1.633       .  S
C1369      C1377   1.390       .  A
C1370      C1381   1.382       .  A
C1371      C1385   1.382       .  A
C1372      C1375   1.385       .  A
C1373      C1379   1.381       .  A
C1374      C1382   1.372       .  A
C1375      H1388   1.080       .  S
C1375      N1376   1.365       .  A
N1376      N1514   1.423       .  S
C1377      H1378   1.081       .  S
C1379      H1389   1.081       .  S
C1379      N1380   1.359   1_556  A
N1380      C1861   1.444       .  S
C1381      H1387   1.082       .  S
C1382      H1384   1.080       .  S
N1383      C1385   1.358       .  A
N1383      C1848   1.439       .  S
C1385      H1386   1.078       .  S
C1390      C1392   1.541       .  S
C1390      C1394   1.555       .  S
C1390      C1393   1.544       .  S
C1391      C1395   1.578       .  S
C1391      C1397   1.577       .  S
C1391      C1396   1.555       .  S
C1392      C1400   1.376       .  A
C1392      C1395   1.415       .  A
C1393      C1404   1.379       .  A
C1393      C1396   1.405       .  A
C1394      C1408   1.390       .  A
C1394      C1397   1.413       .  A
C1395      C1398   1.396       .  A
C1396      C1402   1.378       .  A
C1397      C1405   1.390       .  A
C1398      H1411   1.078       .  S
C1398      N1399   1.368       .  A
N1399      C1400   1.356       .  A
N1399      N1537   1.425       .  S
C1400      H1401   1.079       .  S
C1402      H1412   1.075       .  S
C1402      N1403   1.360       .  A
N1403      C1404   1.362       .  A
N1403      C1824   1.453       .  S
C1404      H1410   1.080       .  S
C1405      H1407   1.076       .  S
C1405      N1406   1.369       .  A
N1406      C1408   1.367       .  A
N1406      C1789   1.473       .  S
C1408      H1409   1.080       .  S
Zn1413     O1417   2.022       .  S
Zn1413     O1418   2.081   1_655  S
Zn1413     O1422   2.099       .  S
Zn1413     O1429   1.951       .  S
Zn1414     O1419   2.044   1_565  S
Zn1414     O1421   2.030   1_655  S
Zn1414     O1425   2.134       .  S
Zn1415     O1417   2.076       .  S
Zn1415     O1420   2.224       .  S
Zn1415     O1423   2.087   1_565  S
Zn1415     O1426   1.982       .  S
Zn1416     O1424   2.036       .  S
Zn1416     O1427   2.684       .  S
Zn1416     O1428   2.072       .  S
O1418      C1430   1.283       .  A
O1420      C1432   1.372       .  A
O1422      C1432   1.370       .  A
O1423      C1431   1.283       .  A
O1425      C1434   1.281       .  A
O1426      C1433   1.267   1_556  A
O1427      C1434   1.302       .  A
O1429      C1435   1.262       .  A
C1430      C1752   1.482       .  S
C1431      C1944   1.469       .  S
C1432      C1454   1.497       .  S
C1433      C1872   1.482       .  S
C1434      C1458   1.491       .  S
C1435      C1776   1.470   1_556  S
Zn1436     O1440   2.034       .  S
Zn1436     O1441   1.946   1_565  S
Zn1436     O1445   2.074       .  S
Zn1436     O1452   2.119       .  S
Zn1437     O1440   2.159       .  S
Zn1437     O1442   2.705       .  S
Zn1437     O1444   2.121       .  S
Zn1437     O1448   2.069       .  S
Zn1438     O1440   2.069       .  S
Zn1438     O1443   2.005       .  S
Zn1438     O1446   2.132       .  S
Zn1438     O1449   2.020       .  S
Zn1439     O1440   2.057       .  S
Zn1439     O1447   2.105       .  S
Zn1439     O1450   1.970       .  S
Zn1439     O1451   2.208       .  S
O1441      C1453   1.258       .  A
O1442      C1454   1.295       .  A
O1443      C1455   1.279       .  A
O1444      C1453   1.280   1_565  A
O1445      C1455   1.285       .  A
O1446      C1454   1.278       .  A
O1447      C1456   1.285       .  A
O1448      C1457   1.281       .  A
O1449      C1456   1.281       .  A
O1450      C1457   1.267       .  A
O1451      C1458   1.374       .  A
O1452      C1458   1.370       .  A
C1453      C1885   1.486       .  S
C1455      C1813   1.487       .  S
C1456      C1728   1.491       .  S
C1457      C1693   1.484   1_655  S
C1459      C1461   1.562   1_455  S
C1459      C1463   1.556       .  S
C1459      C1462   1.554       .  S
C1459      C1483   1.677       .  S
C1460      C1464   1.553   1_455  S
C1460      C1466   1.558       .  S
C1460      C1465   1.574       .  S
C1460      C1482   1.675       .  S
C1461      C1469   1.380       .  A
C1462      C1473   1.378       .  A
C1463      C1477   1.380       .  A
C1464      C1467   1.381       .  A
C1465      C1471   1.392       .  A
C1466      C1474   1.383       .  A
C1467      H1480   1.079       .  S
N1468      C1469   1.364   1_554  A
C1469      H1470   1.079       .  S
C1471      H1481   1.078       .  S
C1471      N1472   1.365       .  A
N1472      C1669   1.470       .  S
C1473      H1479   1.079       .  S
C1474      H1476   1.081       .  S
N1475      C1477   1.358   1_554  A
N1475      C1765   1.442       .  S
C1477      H1478   1.081       .  S
C1482      C1484   1.560       .  S
C1482      C1486   1.554   1_455  S
C1482      C1485   1.553       .  S
C1483      C1487   1.558       .  S
C1483      C1489   1.558   1_455  S
C1483      C1488   1.562       .  S
C1484      C1492   1.383   1_455  A
C1484      C1487   1.426       .  A
C1485      C1496   1.377       .  A
C1485      C1488   1.420       .  A
C1486      C1500   1.377       .  A
C1486      C1489   1.425       .  A
C1487      C1490   1.382   1_455  A
C1488      C1494   1.388       .  A
C1489      C1497   1.385       .  A
C1490      H1503   1.079       .  S
C1490      N1491   1.360       .  A
N1491      C1492   1.362       .  A
C1492      H1493   1.079       .  S
C1494      H1504   1.078       .  S
C1494      N1495   1.362       .  A
N1495      C1496   1.356       .  A
N1495      C1656   1.451       .  S
C1496      H1502   1.079       .  S
C1497      H1499   1.080       .  S
C1497      N1498   1.360       .  A
N1498      C1500   1.355       .  A
N1498      C1717   1.450       .  S
C1500      H1501   1.078       .  S
C1505      C1507   1.537       .  S
C1505      C1509   1.541   1_565  S
C1505      C1508   1.548       .  S
C1505      C1529   1.658       .  S
C1506      C1510   1.546       .  S
C1506      C1512   1.561   1_565  S
C1506      C1511   1.542       .  S
C1506      C1528   1.653       .  S
C1507      C1515   1.380       .  A
C1508      C1519   1.375       .  A
C1509      C1523   1.377       .  A
C1510      C1513   1.377       .  A
C1511      C1517   1.374       .  A
C1512      C1520   1.382       .  A
C1513      H1526   1.078       .  S
C1513      N1514   1.358       .  A
C1515      H1516   1.076       .  S
C1517      H1527   1.081       .  S
C1517      N1518   1.358       .  A
N1518      C1741   1.445       .  S
C1519      H1525   1.081       .  S
C1520      H1522   1.081       .  S
N1521      C1523   1.354       .  A
N1521      C1632   1.434       .  S
C1523      H1524   1.079       .  S
C1528      C1530   1.570       .  S
C1528      C1532   1.535   1_565  S
C1528      C1531   1.548       .  S
C1529      C1533   1.559       .  S
C1529      C1535   1.550   1_565  S
C1529      C1534   1.553       .  S
C1530      C1538   1.385       .  A
C1530      C1533   1.427       .  A
C1531      C1542   1.372   1_565  A
C1531      C1534   1.415       .  A
C1532      C1546   1.377       .  A
C1532      C1535   1.409       .  A
C1533      C1536   1.385       .  A
C1534      C1540   1.386       .  A
C1535      C1543   1.371       .  A
C1536      H1549   1.080       .  S
C1536      N1537   1.360       .  A
N1537      C1538   1.366       .  A
C1538      H1539   1.079       .  S
C1540      H1550   1.082       .  S
C1540      N1541   1.363       .  A
N1541      C1542   1.357   1_565  A
N1541      C1704   1.444       .  S
C1542      H1548   1.081       .  S
C1543      H1545   1.078       .  S
C1543      N1544   1.349       .  A
N1544      C1546   1.352       .  A
N1544      C1597   1.424       .  S
C1546      H1547   1.081       .  S
Zn1551     O1556   2.008       .  S
Zn1551     O1560   2.023       .  S
Zn1551     O1567   2.132       .  S
Zn1552     O1555   1.980       .  S
Zn1552     O1557   2.183       .  S
Zn1552     O1559   2.000       .  S
Zn1552     O1563   2.054       .  S
Zn1553     O1558   1.975       .  S
Zn1553     O1561   1.963   1_556  S
Zn1553     O1564   2.083       .  S
Zn1554     O1555   2.047       .  S
Zn1554     O1562   2.111       .  S
Zn1554     O1565   2.024       .  S
Zn1554     O1566   1.955       .  S
O1557      C1569   1.291       .  A
O1558      C1570   1.259       .  A
O1559      C1568   1.269       .  A
O1560      C1570   1.263       .  A
O1562      C1571   1.277       .  A
O1563      C1572   1.271       .  A
O1565      C1572   1.268       .  A
O1566      C1573   1.262       .  A
C1568      C1837   1.479       .  S
C1569      C1680   1.502       .  S
C1570      C1595   1.459       .  S
C1571      C1621   1.476       .  S
C1572      C1593   1.465       .  S
C1573      C1957   1.465       .  S
Zn1574     O1578   2.018       .  S
Zn1574     O1579   2.040       .  S
Zn1574     O1583   1.954       .  S
Zn1574     O1590   1.962       .  S
Zn1575     O1578   1.901       .  S
Zn1575     O1580   2.061       .  S
Zn1575     O1582   2.022       .  S
Zn1575     O1586   1.970       .  S
Zn1576     O1578   1.919       .  S
Zn1576     O1581   2.034       .  S
Zn1576     O1584   2.151       .  S
Zn1576     O1587   2.055       .  S
Zn1577     O1578   2.054       .  S
Zn1577     O1585   2.064       .  S
Zn1577     O1588   1.921       .  S
Zn1577     O1589   2.009       .  S
O1579      C1591   1.271       .  A
O1580      C1592   1.280       .  A
O1581      C1593   1.271       .  A
O1582      C1591   1.269       .  A
O1583      C1593   1.261       .  A
O1584      C1592   1.291       .  A
O1585      C1594   1.276       .  A
O1586      C1595   1.262       .  A
O1587      C1594   1.274       .  A
O1588      C1595   1.255       .  A
O1589      C1596   1.272       .  A
O1590      C1596   1.266       .  A
C1591      C1920   1.484       .  S
C1592      C1800   1.513       .  S
C1594      C1645   1.496       .  S
C1596      C1608   1.462       .  S
C1597      C1598   1.402       .  A
C1597      C1602   1.397       .  A
C1598      C1599   1.385       .  A
C1598      H1611   1.080       .  S
C1599      C1600   1.396       .  A
C1599      H1612   1.084       .  S
C1600      C1601   1.409       .  A
C1600      C1603   1.466       .  S
C1601      C1602   1.396       .  A
C1601      H1613   1.082       .  S
C1602      H1614   1.083       .  S
C1603      C1604   1.337       .  D
C1603      H1615   1.087       .  S
C1604      C1605   1.464       .  S
C1604      H1616   1.085       .  S
C1605      C1606   1.395       .  A
C1605      C1610   1.406       .  A
C1606      C1607   1.388       .  A
C1606      H1617   1.083       .  S
C1607      C1608   1.406       .  A
C1607      H1618   1.083       .  S
C1608      C1609   1.401       .  A
C1609      C1610   1.392       .  A
C1609      H1619   1.083       .  S
C1610      H1620   1.083       .  S
C1621      C1622   1.404       .  A
C1621      C1626   1.403       .  A
C1622      C1623   1.391       .  A
C1622      H1635   1.084       .  S
C1623      C1624   1.399       .  A
C1623      H1636   1.084       .  S
C1624      C1625   1.413       .  A
C1624      C1627   1.487       .  S
C1625      C1626   1.406       .  A
C1625      H1637   1.081       .  S
C1626      H1638   1.083       .  S
C1627      C1628   1.342       .  D
C1627      H1639   1.085       .  S
C1628      C1629   1.488       .  S
C1628      H1640   1.085       .  S
C1629      C1630   1.400       .  A
C1629      C1634   1.414       .  A
C1630      C1631   1.392       .  A
C1630      H1641   1.083       .  S
C1631      C1632   1.403       .  A
C1631      H1642   1.081       .  S
C1632      C1633   1.398       .  A
C1633      C1634   1.404       .  A
C1633      H1643   1.082       .  S
C1634      H1644   1.081       .  S
C1645      C1646   1.406       .  A
C1645      C1650   1.408       .  A
C1646      C1647   1.404       .  A
C1646      H1659   1.083       .  S
C1647      C1648   1.408       .  A
C1647      H1660   1.083       .  S
C1648      C1649   1.410       .  A
C1648      C1651   1.503       .  S
C1649      C1650   1.404       .  A
C1649      H1661   1.080       .  S
C1650      H1662   1.083       .  S
C1651      C1652   1.355       .  D
C1651      H1663   1.084       .  S
C1652      C1653   1.501       .  S
C1652      H1664   1.084       .  S
C1653      C1654   1.407       .  A
C1653      C1658   1.410       .  A
C1654      C1655   1.402       .  A
C1654      H1665   1.083       .  S
C1655      C1656   1.406       .  A
C1655      H1666   1.082       .  S
C1656      C1657   1.408       .  A
C1657      C1658   1.405       .  A
C1657      H1667   1.081       .  S
C1658      H1668   1.081       .  S
C1669      C1670   1.414       .  A
C1670      H1683   1.079       .  S
C1671      C1672   1.401       .  A
C1671      H1684   1.083       .  S
C1672      C1673   1.411       .  A
C1672      C1675   1.481       .  S
C1673      C1674   1.399       .  A
C1673      H1685   1.081       .  S
C1674      H1686   1.083       .  S
C1675      C1676   1.343       .  D
C1675      H1687   1.087       .  S
C1676      C1677   1.475       .  S
C1676      H1688   1.085       .  S
C1677      C1678   1.398       .  A
C1677      C1682   1.409       .  A
C1678      C1679   1.390       .  A
C1678      H1689   1.084       .  S
C1679      H1690   1.084       .  S
C1681      C1682   1.401       .  A
C1682      H1692   1.083       .  S
C1693      C1694   1.406       .  A
C1693      C1698   1.407       .  A
C1694      C1695   1.405       .  A
C1694      H1707   1.083   1_565  S
C1695      C1696   1.406       .  A
C1695      H1708   1.083   1_565  S
C1696      C1697   1.404       .  A
C1696      C1699   1.487       .  S
C1697      C1698   1.393       .  A
C1697      H1709   1.083       .  S
C1698      H1710   1.083       .  S
C1699      C1700   1.346       .  D
C1699      H1711   1.086   1_565  S
C1700      C1701   1.483       .  S
C1700      H1712   1.087       .  S
C1701      C1702   1.399       .  A
C1701      C1706   1.409       .  A
C1702      C1703   1.393       .  A
C1702      H1713   1.082       .  S
C1703      C1704   1.406       .  A
C1703      H1714   1.082       .  S
C1704      C1705   1.407   1_565  A
C1705      C1706   1.407   1_545  A
C1705      H1715   1.083       .  S
C1706      H1716   1.083   1_565  S
C1717      C1718   1.409       .  A
C1717      C1722   1.409       .  A
C1718      C1719   1.400       .  A
C1718      H1731   1.081       .  S
C1719      C1720   1.404       .  A
C1719      H1732   1.083       .  S
C1720      C1721   1.408       .  A
C1720      C1723   1.494       .  S
C1721      C1722   1.402       .  A
C1721      H1733   1.081       .  S
C1722      H1734   1.082       .  S
C1723      C1724   1.351       .  D
C1723      H1735   1.085       .  S
C1724      C1725   1.495       .  S
C1724      H1736   1.085       .  S
C1725      C1726   1.406       .  A
C1725      C1730   1.409       .  A
C1726      C1727   1.401       .  A
C1726      H1737   1.083       .  S
C1727      C1728   1.406       .  A
C1727      H1738   1.083       .  S
C1728      C1729   1.408       .  A
C1729      C1730   1.403       .  A
C1729      H1739   1.083       .  S
C1730      H1740   1.081       .  S
C1741      C1742   1.408       .  A
C1741      C1746   1.407   1_556  A
C1742      C1743   1.399       .  A
C1742      H1755   1.082       .  S
C1743      C1744   1.401       .  A
C1743      H1756   1.083       .  S
C1744      C1745   1.407   1_556  A
C1744      C1747   1.485       .  S
C1745      C1746   1.397       .  A
C1745      H1757   1.083       .  S
C1746      H1758   1.082       .  S
C1747      C1748   1.345       .  D
C1747      H1759   1.085       .  S
C1748      C1749   1.484       .  S
C1748      H1760   1.087       .  S
C1749      C1750   1.399       .  A
C1749      C1754   1.411       .  A
C1750      C1751   1.388       .  A
C1750      H1761   1.084       .  S
C1751      C1752   1.406       .  A
C1751      H1762   1.083       .  S
C1752      C1753   1.405       .  A
C1753      C1754   1.406       .  A
C1753      H1763   1.083       .  S
C1754      H1764   1.081       .  S
C1766      C1767   1.406       .  A
C1766      H1779   1.082       .  S
C1767      C1768   1.408       .  A
C1767      H1780   1.083       .  S
C1768      C1769   1.407   1_455  A
C1768      C1771   1.497   1_455  S
C1769      C1770   1.397       .  A
C1769      H1781   1.081       .  S
C1770      H1782   1.079       .  S
C1771      C1772   1.353       .  D
C1771      H1783   1.084   1_655  S
C1772      C1773   1.496       .  S
C1772      H1784   1.084       .  S
C1773      C1774   1.407       .  A
C1773      C1778   1.411       .  A
C1774      C1775   1.400       .  A
C1774      H1785   1.083       .  S
C1775      H1786   1.083       .  S
C1777      C1778   1.404       .  A
C1777      H1787   1.083   1_655  S
C1778      H1788   1.080   1_655  S
C1789      C1790   1.414       .  A
C1789      C1794   1.418       .  A
C1790      C1791   1.408       .  A
C1790      H1803   1.079       .  S
C1791      C1792   1.405       .  A
C1791      H1804   1.082       .  S
C1792      C1793   1.412       .  A
C1792      C1795   1.516       .  S
C1793      C1794   1.417       .  A
C1793      H1805   1.082       .  S
C1794      H1806   1.080       .  S
C1795      C1796   1.357       .  D
C1795      H1807   1.086       .  S
C1796      C1797   1.515       .  S
C1796      H1808   1.085       .  S
C1797      C1798   1.406       .  A
C1797      C1802   1.414       .  A
C1798      C1799   1.406       .  A
C1798      H1809   1.083       .  S
C1799      C1800   1.411       .  A
C1799      H1810   1.083       .  S
C1800      C1801   1.411       .  A
C1801      C1802   1.418       .  A
C1801      H1811   1.082       .  S
C1802      H1812   1.082       .  S
C1813      C1814   1.407       .  A
C1813      C1818   1.407       .  A
C1814      C1815   1.394       .  A
C1814      H1827   1.083       .  S
C1815      C1816   1.404       .  A
C1815      H1828   1.082       .  S
C1816      C1817   1.405       .  A
C1816      C1819   1.488       .  S
C1817      C1818   1.405       .  A
C1817      H1829   1.083   1_565  S
C1818      H1830   1.083       .  S
C1819      C1820   1.350       .  D
C1819      H1831   1.084       .  S
C1820      C1821   1.490       .  S
C1820      H1832   1.087       .  S
C1821      C1822   1.407       .  A
C1821      C1826   1.403       .  A
C1822      C1823   1.402       .  A
C1822      H1833   1.081       .  S
C1823      C1824   1.412       .  A
C1823      H1834   1.081       .  S
C1824      C1825   1.410       .  A
C1825      C1826   1.397       .  A
C1825      H1835   1.080       .  S
C1826      H1836   1.084       .  S
C1838      C1839   1.396       .  A
C1838      H1851   1.083       .  S
C1839      C1840   1.406   1_554  A
C1839      H1852   1.080       .  S
C1840      C1841   1.405       .  A
C1840      C1843   1.484       .  S
C1841      C1842   1.398       .  A
C1841      H1853   1.083       .  S
C1842      H1854   1.082       .  S
C1843      C1844   1.348       .  D
C1843      H1855   1.086       .  S
C1844      C1845   1.482       .  S
C1844      H1856   1.084   1_556  S
C1845      C1846   1.404       .  A
C1845      C1850   1.402   1_556  A
C1846      C1847   1.393       .  A
C1846      H1857   1.083       .  S
C1847      H1858   1.080       .  S
C1849      C1850   1.398       .  A
C1849      H1859   1.082       .  S
C1850      H1860   1.083       .  S
C1861      C1862   1.408       .  A
C1861      C1866   1.407   1_554  A
C1862      C1863   1.395       .  A
C1862      H1875   1.081       .  S
C1863      C1864   1.399       .  A
C1863      H1876   1.080       .  S
C1864      C1865   1.406   1_554  A
C1864      C1867   1.482       .  S
C1865      C1866   1.402       .  A
C1865      H1877   1.083       .  S
C1866      H1878   1.082       .  S
C1867      C1868   1.343   1_554  D
C1867      H1879   1.088       .  S
C1868      C1869   1.480       .  S
C1868      H1880   1.086       .  S
C1869      C1870   1.402   1_556  A
C1869      C1874   1.404       .  A
C1870      C1871   1.400       .  A
C1870      H1881   1.083       .  S
C1871      C1872   1.405       .  A
C1871      H1882   1.083       .  S
C1872      C1873   1.407   1_554  A
C1873      C1874   1.398       .  A
C1873      H1883   1.083       .  S
C1874      H1884   1.083       .  S
C1885      C1886   1.405       .  A
C1885      C1890   1.405       .  A
C1886      C1887   1.410       .  A
C1886      H1899   1.083       .  S
C1887      C1888   1.410       .  A
C1887      H1900   1.083       .  S
C1888      C1889   1.409       .  A
C1888      C1891   1.504       .  S
C1889      C1890   1.401       .  A
C1889      H1901   1.081       .  S
C1890      H1902   1.083       .  S
C1891      C1892   1.355       .  D
C1891      H1903   1.084       .  S
C1892      C1893   1.504       .  S
C1892      H1904   1.085       .  S
C1893      C1894   1.405       .  A
C1893      C1898   1.410       .  A
C1894      C1895   1.399       .  A
C1894      H1905   1.084       .  S
C1895      C1896   1.410       .  A
C1895      H1906   1.080       .  S
C1896      C1897   1.414       .  A
C1897      C1898   1.411       .  A
C1897      H1907   1.081       .  S
C1898      H1908   1.080       .  S
C1909      C1910   1.408       .  A
C1909      C1914   1.410       .  A
C1910      C1911   1.401       .  A
C1910      H1923   1.082       .  S
C1911      C1912   1.404       .  A
C1911      H1924   1.083       .  S
C1912      C1913   1.405       .  A
C1912      C1915   1.488       .  S
C1913      C1914   1.397       .  A
C1913      H1925   1.082       .  S
C1914      H1926   1.081       .  S
C1915      C1916   1.351       .  D
C1915      H1927   1.085       .  S
C1916      C1917   1.489       .  S
C1916      H1928   1.086       .  S
C1917      C1918   1.406       .  A
C1917      C1922   1.406       .  A
C1918      C1919   1.402       .  A
C1918      H1929   1.083       .  S
C1919      C1920   1.405       .  A
C1919      H1930   1.083       .  S
C1920      C1921   1.406       .  A
C1921      C1922   1.398       .  A
C1921      H1931   1.083       .  S
C1922      H1932   1.081       .  S
C1934      C1935   1.401       .  A
C1935      C1936   1.404       .  A
C1935      H1948   1.083       .  S
C1936      C1937   1.407       .  A
C1936      C1939   1.499       .  S
C1937      C1938   1.405       .  A
C1937      H1949   1.081       .  S
C1938      H1950   1.079       .  S
C1939      C1940   1.352       .  D
C1939      H1951   1.086       .  S
C1940      C1941   1.497       .  S
C1940      H1952   1.085       .  S
C1941      C1942   1.406       .  A
C1941      C1946   1.409       .  A
C1942      C1943   1.404       .  A
C1942      H1953   1.083       .  S
C1943      H1954   1.083       .  S
C1945      C1946   1.405       .  A
C1945      H1955   1.083       .  S
C1946      H1956   1.082       .  S
C1958      C1959   1.408       .  A
C1958      H1971   1.083       .  S
C1959      C1960   1.408       .  A
C1959      H1972   1.083       .  S
C1960      C1961   1.405       .  A
C1960      C1963   1.495       .  S
C1961      C1962   1.397       .  A
C1961      H1973   1.082       .  S
C1962      H1974   1.083       .  S
C1963      C1964   1.350       .  D
C1963      H1975   1.086       .  S
C1964      C1965   1.491       .  S
C1964      H1976   1.086       .  S
C1965      C1966   1.403       .  A
C1965      C1970   1.406       .  A
C1966      C1967   1.399       .  A
C1966      H1977   1.083       .  S
C1967      H1978   1.081       .  S
C1969      C1970   1.404   1_554  A
C1969      H1979   1.080       .  S
C1970      H1980   1.082   1_556  S
