geometry optimzed in LAMMPS
_audit_creation_date              2020-11-30 
_audit_creation_method            'lammps2cif' 
_symmetry_space_group_name_H-M    'P1' 
_symmetry_Int_Tables_number       1 
_symmetry_cell_setting            triclinic 
loop_ 
_symmetry_equiv_pos_as_xyz 
  x,y,z 
_cell_length_a                    26.57100003 
_cell_length_b                    27.228319437810995 
_cell_length_c                    27.07094425143441 
_cell_angle_alpha                 94.00968365012808 
_cell_angle_beta                  94.72677089672574 
_cell_angle_gamma                 110.08528064458626 
loop_ 
_atom_site_label 
_atom_site_type_symbol 
_atom_site_fract_x 
_atom_site_fract_y 
_atom_site_fract_z 
_atom_site_charge 
Zn1        Zn  0.27327709  0.17580806  0.26594823     1.49700
Zn2        Zn  0.32180670  0.15203013  0.17006547     1.49400
Zn3        Zn  0.39957737  0.22674768  0.26414956     1.49100
Zn4        Zn  0.34865219  0.10111330  0.26768097     1.49500
O5          O  0.33599407  0.16367794  0.24240727    -1.81900
O6          O  0.21617369  0.17559086  0.21106279    -0.72500
O7          O  0.37861896  0.20621977  0.14049496    -0.72300
O8          O  0.38485914  0.28372467  0.30821676    -0.71900
O9          O  0.24885372  0.15488159  0.14315488    -0.72500
O10         O  0.29667001  0.24587933  0.30896749    -0.72100
O11         O  0.43315724  0.25898224  0.20422161    -0.72700
O12         O  0.42008725  0.11953913  0.31415621    -0.72100
O13         O  0.32381341  0.08278707  0.14424130    -0.72900
O14         O  0.45150053  0.20525482  0.30790103    -0.72300
O15         O  0.34175352  0.04488774  0.21027846    -0.72700
O16         O  0.29080852  0.06954332  0.31140781    -0.72600
O17         O  0.23944260  0.11957202  0.30887774    -0.72400
C18         C  0.21226481  0.16616935  0.16391310     0.79400
C19         C  0.41976072  0.24600450  0.15753009     0.79900
C20         C  0.34080419  0.28413078  0.32318394     0.78800
C21         C  0.45603657  0.16487515  0.32639197     0.79200
C22         C  0.33060693  0.04388871  0.16330708     0.80300
C23         C  0.25119570  0.08144646  0.32457666     0.79400
N24         N  0.50068906  0.17319970  0.36450493    -0.01200
C25         C  0.49471319  0.15615034  0.41120032     0.01400
C26         C  0.03069040  0.19532081  0.44701527    -0.21500
C27         C  0.05878247  0.23627352  0.42298655    -0.21700
C28         C  0.04108938  0.22231060  0.37315164     0.01300
H29         H  0.03833937  0.19264194  0.48647466     0.15000
H30         H  0.09010866  0.27206019  0.44006873     0.15100
Zn31       Zn  0.15016340  0.36076826  0.32662458     1.49700
Zn32       Zn  0.09682233  0.28698915  0.23494959     1.49400
Zn33       Zn  0.13484161  0.41364681  0.22783124     1.49100
Zn34       Zn  0.21995132  0.36107508  0.23798639     1.49500
O35         O  0.14920144  0.35576537  0.25647197    -1.81900
O36         O  0.08847938  0.30711911  0.35197251    -0.72500
O37         O  0.03987518  0.29893282  0.19051207    -0.72300
O38         O  0.14780574  0.47379427  0.28415874    -0.71900
O39         O  0.06512351  0.24239904  0.29087584    -0.72500
O40         O  0.15678540  0.43311385  0.35139917    -0.72100
O41         O  0.06058936  0.38536639  0.18746495    -0.72700
O42         O  0.26054777  0.42852615  0.21041792    -0.72100
O43         O  0.12991110  0.24758762  0.19107330    -0.72900
O44         O  0.18681666  0.43855669  0.17562300    -0.72300
O45         O  0.21056879  0.30606814  0.18257129    -0.72700
O46         O  0.26372120  0.34590596  0.29365823    -0.72600
O47         O  0.21298630  0.34411728  0.35533826    -0.72400
C48         C  0.06455844  0.25888631  0.33597602     0.79400
C49         C  0.03023937  0.33773944  0.17357260     0.79900
C50         C  0.15675329  0.47412433  0.33148589     0.78800
C51         C  0.23649520  0.44420946  0.17582558     0.79200
C52         C  0.17330979  0.26192723  0.17054428     0.80300
C53         C  0.25399682  0.33848848  0.33819421     0.79400
N54         N  0.31535692  0.99539268  0.13180275    -0.01200
C55         C  0.32604656  0.99292484  0.08330691     0.01400
C56         C  0.28081613  0.45862774  0.05374068    -0.21500
C57         C  0.24151010  0.43939477  0.08412942    -0.21700
C58         C  0.26410415  0.46147531  0.13161607     0.01300
H59         H  0.27832170  0.44527731  0.01469057     0.15000
H60         H  0.20205669  0.40975941  0.07330823     0.15100
N61         N  0.17323182  0.52234802  0.36372769    -0.01200
C62         C  0.16259855  0.02345767  0.41192834     0.01400
C63         C  0.20612494  0.05774382  0.44332202    -0.21500
C64         C  0.24535490  0.07971091  0.41408181    -0.21700
C65         C  0.22460390  0.05765114  0.36619194     0.01300
H66         H  0.20774695  0.06843895  0.48287345     0.15000
H67         H  0.28365199  0.11085503  0.42591062     0.15100
N68         N  0.17059252  0.17634484  0.13340218    -0.01200
C69         C  0.15075132  0.15178415  0.08697548     0.01400
C70         C  0.15223289  0.18870718  0.05369284    -0.21500
C71         C  0.16875233  0.23673314  0.08091917    -0.21700
C72         C  0.17815669  0.22745301  0.12943370     0.01300
H73         H  0.13334894  0.18057097  0.01554822     0.15000
H74         H  0.16635718  0.27267651  0.06794987     0.15100
N75         N  0.34080053  0.32567267  0.35997559    -0.01200
C76         C  0.36825494  0.32996330  0.40564830     0.01400
C77         C  0.33112231  0.30993930  0.43939265    -0.23300
C78         C  0.28277290  0.31025462  0.41843708    -0.21700
C79         C  0.29154244  0.32399936  0.37121172     0.01300
H80         H  0.34012853  0.30934721  0.47907620     0.15000
H81         H  0.24717601  0.30595891  0.43701897     0.15100
N82         N  0.98843169  0.32625957  0.13285201    -0.01200
C83         C  0.50048974  0.34535468  0.08816475     0.01400
C84         C  0.47039305  0.30838015  0.04944154    -0.21500
C85         C  0.43840860  0.26606352  0.07041983    -0.21700
C86         C  0.45054404  0.27840927  0.12132288     0.01300
H87         H  0.46730307  0.31401187  0.01028665     0.15000
H88         H  0.40755746  0.23145245  0.05072624     0.15100
Zn89       Zn  0.48601722  0.05937426  0.03084003     1.49700
Zn90       Zn  0.44899705  0.44321069  0.02604288     1.49400
Zn91       Zn  0.99158232  0.49302853  0.42637816     1.49100
Zn92       Zn  0.06528638  0.49237856  0.02949018     1.49500
O93         O  0.99850993  0.49928377  0.00040759    -1.81900
O94         O  0.41872526  0.04358562  0.07121138    -0.72500
O95         O  0.42426105  0.38414743  0.47380238    -0.72300
O96         O  0.48102203  0.06163850  0.40045731    -0.71900
O97         O  0.38471551  0.45830248  0.04456653    -0.72500
O98         O  0.47534581  0.10013715  0.47416792    -0.72100
O99         O  0.43113866  0.41920000  0.40136310    -0.72700
O100        O  0.11123293  0.49662899  0.47641690    -0.72100
O101        O  0.47955059  0.42158209  0.08699572    -0.72900
O102        O  0.06573093  0.49775320  0.40390463    -0.72300
O103        O  0.05325788  0.42187561  0.05612822    -0.72700
O104        O  0.11137343  0.05856194  0.07398454    -0.72600
O105        O  0.05787972  0.10616241  0.06600139    -0.72400
C106        C  0.37985734  0.99936451  0.06695167     0.79400
C107        C  0.41223813  0.37991027  0.42684551     0.79900
C108        C  0.47907280  0.10155453  0.42746891     0.78800
C109        C  0.10943678  0.50179311  0.43028024     0.79200
C110        C  0.01394132  0.39987941  0.08013915     0.80300
C111        C  0.10398405  0.10238280  0.07776345     0.79400
Zn112      Zn  0.27341384  0.17535958  0.76658606     1.49700
Zn113      Zn  0.32186715  0.15150425  0.67069416     1.49400
Zn114      Zn  0.39969011  0.22666273  0.76462908     1.49100
Zn115      Zn  0.34919373  0.10098002  0.76848323     1.49500
O116        O  0.33623422  0.16338291  0.74306087    -1.81900
O117        O  0.21630213  0.17515406  0.71163705    -0.72500
O118        O  0.37841941  0.20575049  0.64091408    -0.72300
O119        O  0.38478448  0.28348611  0.80886199    -0.71900
O120        O  0.24876926  0.15408135  0.64374641    -0.72500
O121        O  0.29665814  0.24533863  0.80985098    -0.72100
O122        O  0.43289752  0.25891076  0.70446079    -0.72700
O123        O  0.42077232  0.11977771  0.81489760    -0.72100
O124        O  0.32411030  0.08232481  0.64499317    -0.72900
O125        O  0.45197127  0.20543331  0.80826878    -0.72300
O126        O  0.34248569  0.04470763  0.71107670    -0.72700
O127        O  0.29134127  0.06932170  0.81229499    -0.72600
O128        O  0.23956187  0.11893960  0.80931672    -0.72400
C129        C  0.21226073  0.16553239  0.66449117     0.79400
C130        C  0.41941400  0.24574807  0.65778874     0.79900
C131        C  0.34073067  0.28369255  0.82400493     0.78800
C132        C  0.45669496  0.16517898  0.82688206     0.79200
C133        C  0.33116737  0.04356050  0.66409943     0.80300
C134        C  0.25149277  0.08099033  0.82521469     0.79400
N135        N  0.50162616  0.17372901  0.86475291    -0.01200
C136        C  0.49642793  0.15666846  0.91149584     0.01400
C137        C  0.02322547  0.19743327  0.94749915    -0.21500
C138        C  0.05243451  0.23814323  0.92377024    -0.21700
C139        C  0.03864390  0.22269410  0.87361871     0.01300
H140        H  0.02847833  0.19591667  0.98739273     0.15000
H141        H  0.08190872  0.27480705  0.94140072     0.15100
Zn142      Zn  0.15016884  0.36049953  0.82717029     1.49700
Zn143      Zn  0.09677969  0.28654317  0.73550423     1.49400
Zn144      Zn  0.13492304  0.41336540  0.72847944     1.49100
Zn145      Zn  0.21997196  0.36062911  0.73856945     1.49500
O146        O  0.14920987  0.35538049  0.75703556    -1.81900
O147        O  0.08829144  0.30699905  0.85248856    -0.72500
O148        O  0.04018697  0.29872587  0.69056352    -0.72300
O149        O  0.14784398  0.47357091  0.78470406    -0.71900
O150        O  0.06439635  0.24213294  0.79151447    -0.72500
O151        O  0.15706911  0.43299691  0.85194172    -0.72100
O152        O  0.06083812  0.38520695  0.68787006    -0.72700
O153        O  0.26063663  0.42803792  0.71092044    -0.72100
O154        O  0.13002024  0.24690269  0.69193111    -0.72900
O155        O  0.18696751  0.43848761  0.67648755    -0.72300
O156        O  0.21051384  0.30556437  0.68320908    -0.72700
O157        O  0.26373689  0.34547345  0.79428015    -0.72600
O158        O  0.21286836  0.34371543  0.85584763    -0.72400
C159        C  0.06373078  0.25883755  0.83654600     0.79400
C160        C  0.03062012  0.33760706  0.67367693     0.79900
C161        C  0.15695045  0.47398083  0.83201553     0.78800
C162        C  0.23660896  0.44406869  0.67658137     0.79200
C163        C  0.17336661  0.26132847  0.67130863     0.80300
C164        C  0.25392174  0.33808295  0.83880146     0.79400
N165        N  0.31594475  0.99500303  0.63266818    -0.01200
C166        C  0.32624963  0.99249495  0.58404002     0.01400
C167        C  0.28047329  0.45966998  0.55444555    -0.21500
C168        C  0.24134194  0.44007218  0.58489233    -0.21700
C169        C  0.26414300  0.46169195  0.63244420     0.01300
H170        H  0.27781559  0.44669062  0.51527847     0.15000
H171        H  0.20184913  0.41051797  0.57402540     0.15100
N172        N  0.17327540  0.52222601  0.86422556    -0.01200
C173        C  0.16202623  0.02375902  0.91210641     0.01400
C174        C  0.20554097  0.05780903  0.94365793    -0.21500
C175        C  0.24519554  0.07923221  0.91464880    -0.21700
C176        C  0.22467565  0.05712464  0.86672250     0.01300
H177        H  0.20693678  0.06865819  0.98314698     0.15000
H178        H  0.28360361  0.11016288  0.92661473     0.15100
N179        N  0.17060062  0.17575080  0.63395577    -0.01200
C180        C  0.15105265  0.15148574  0.58736048     0.01400
C181        C  0.15306850  0.18863345  0.55421485    -0.21500
C182        C  0.16946165  0.23652232  0.58165827    -0.21700
C183        C  0.17826934  0.22691067  0.63016436     0.01300
H184        H  0.13465887  0.18074549  0.51592193     0.15000
H185        H  0.16740737  0.27261398  0.56876591     0.15100
N186        N  0.34065689  0.32518146  0.86082717    -0.01200
C187        C  0.36816348  0.32966347  0.90651799     0.01400
C188        C  0.33111585  0.31058829  0.94055701    -0.23300
C189        C  0.28280144  0.31080606  0.91946075    -0.21700
C190        C  0.29142647  0.32370903  0.87197873     0.01300
H191        H  0.34022577  0.31060509  0.98032214     0.15000
H192        H  0.24733631  0.30706341  0.93808335     0.15100
N193        N  0.98905241  0.32630678  0.63274079    -0.01200
C194        C  0.49945687  0.34517996  0.58801897     0.01400
C195        C  0.46904910  0.30821980  0.54940413    -0.21500
C196        C  0.43732104  0.26586852  0.57052293    -0.21700
C197        C  0.44986408  0.27818916  0.62140336     0.01300
H198        H  0.46556851  0.31389864  0.51027550     0.15000
H199        H  0.40634158  0.23126741  0.55095595     0.15100
Zn200      Zn  0.48546659  0.05884921  0.53039149     1.49700
Zn201      Zn  0.44808768  0.44365696  0.52604613     1.49400
Zn202      Zn  0.99129511  0.49277571  0.92600235     1.49100
Zn203      Zn  0.06591786  0.49292054  0.52964116     1.49500
O204        O  0.99903105  0.49975002  0.50083127    -1.81900
O205        O  0.41888083  0.04306685  0.57166980    -0.72500
O206        O  0.42579777  0.38333662  0.97405022    -0.72300
O207        O  0.48139339  0.06189212  0.90072886    -0.71900
O208        O  0.38414383  0.45899081  0.54494728    -0.72500
O209        O  0.47679844  0.10086954  0.97455831    -0.72100
O210        O  0.43126695  0.41859513  0.90171513    -0.72700
O211        O  0.11076591  0.49606109  0.97647769    -0.72100
O212        O  0.47823786  0.42122380  0.58667610    -0.72900
O213        O  0.06559020  0.49770812  0.90392661    -0.72300
O214        O  0.05398413  0.42246912  0.55637026    -0.72700
O215        O  0.11150262  0.05828521  0.57450610    -0.72600
O216        O  0.05823991  0.10597081  0.56515011    -0.72400
C217        C  0.37985126  0.99895783  0.56719765     0.79400
C218        C  0.41280666  0.37927320  0.92724883     0.79900
C219        C  0.48015731  0.10208540  0.92779852     0.78800
C220        C  0.10915738  0.50152210  0.93040777     0.79200
C221        C  0.01481383  0.40044701  0.58054593     0.80300
C222        C  0.10420583  0.10215942  0.57768146     0.79400
Zn223      Zn  0.27341952  0.67547400  0.26609629     1.49700
Zn224      Zn  0.32194913  0.65121873  0.17017443     1.49400
Zn225      Zn  0.39923664  0.72644726  0.26412394     1.49100
Zn226      Zn  0.34848604  0.60058815  0.26780529     1.49500
O227        O  0.33595368  0.66315900  0.24249763    -1.81900
O228        O  0.21680116  0.67555900  0.21105787    -0.72500
O229        O  0.37836213  0.70579386  0.14052261    -0.72300
O230        O  0.38469367  0.78337923  0.30846026    -0.71900
O231        O  0.24862996  0.65320758  0.14324943    -0.72500
O232        O  0.29661241  0.74534819  0.30956383    -0.72100
O233        O  0.43266105  0.75877718  0.20424570    -0.72700
O234        O  0.41980973  0.61932707  0.31422365    -0.72100
O235        O  0.32479643  0.58228067  0.14438854    -0.72900
O236        O  0.45110053  0.70500711  0.30764617    -0.72300
O237        O  0.34168381  0.54416682  0.21061871    -0.72700
O238        O  0.29066675  0.56912739  0.31152472    -0.72600
O239        O  0.23916979  0.61901317  0.30855999    -0.72400
C240        C  0.21245715  0.66528545  0.16397866     0.79400
C241        C  0.41934364  0.74573843  0.15756114     0.79900
C242        C  0.34071654  0.78366001  0.32368446     0.78800
C243        C  0.45566910  0.66473679  0.32630251     0.79200
C244        C  0.33113588  0.54326398  0.16357906     0.80300
C245        C  0.25093898  0.58097907  0.32443750     0.79400
N246        N  0.49999924  0.67331725  0.36475358    -0.01200
C247        C  0.49288327  0.65674265  0.41147358     0.01400
C248        C  0.02925985  0.69652759  0.44713542    -0.21500
C249        C  0.05751163  0.73736043  0.42307336    -0.21700
C250        C  0.04091617  0.72278474  0.37313512     0.01300
H251        H  0.03634570  0.69439793  0.48677246     0.15000
H252        H  0.08822781  0.77349880  0.44025382     0.15100
Zn253      Zn  0.15062130  0.86103318  0.32643814     1.49700
Zn254      Zn  0.09710135  0.78694430  0.23470988     1.49400
Zn255      Zn  0.13484540  0.91379241  0.22789367     1.49100
Zn256      Zn  0.22023439  0.86072361  0.23770042     1.49500
O257        O  0.14954404  0.85579077  0.25622368    -1.81900
O258        O  0.08902640  0.80739864  0.35187180    -0.72500
O259        O  0.04038379  0.79906932  0.18991057    -0.72300
O260        O  0.14771408  0.97396813  0.28425377    -0.71900
O261        O  0.06515246  0.74262098  0.29078837    -0.72500
O262        O  0.15742819  0.93342285  0.35136870    -0.72100
O263        O  0.06058670  0.88551942  0.18742921    -0.72700
O264        O  0.26037812  0.92787944  0.20934746    -0.72100
O265        O  0.13005479  0.74701295  0.19114081    -0.72900
O266        O  0.18672893  0.93913677  0.17576063    -0.72300
O267        O  0.21085239  0.80519008  0.18266651    -0.72700
O268        O  0.26418131  0.84593578  0.29367769    -0.72600
O269        O  0.21329964  0.84438235  0.35519190    -0.72400
C270        C  0.06477299  0.75919765  0.33590942     0.79400
C271        C  0.03052112  0.83787782  0.17319094     0.79900
C272        C  0.15705925  0.97437702  0.33154394     0.78800
C273        C  0.23624822  0.94434712  0.17541235     0.79200
C274        C  0.17350924  0.76108444  0.17069286     0.80300
C275        C  0.25431483  0.83862266  0.33821296     0.79400
N276        N  0.31581740  0.49474887  0.13207341    -0.01200
C277        C  0.32627938  0.49223391  0.08350104     0.01400
C278        C  0.28064184  0.95936176  0.05342509    -0.21500
C279        C  0.24115764  0.94016821  0.08368807    -0.21700
C280        C  0.26362038  0.96218054  0.13122682     0.01300
H281        H  0.27832254  0.94593355  0.01442107     0.15000
H282        H  0.20176844  0.91044812  0.07278541     0.15100
N283        N  0.17350902  0.02260457  0.36380582    -0.01200
C284        C  0.16233483  0.52329837  0.41184247     0.01400
C285        C  0.20580395  0.55772823  0.44318572    -0.21500
C286        C  0.24502135  0.57963509  0.41392045    -0.21700
C287        C  0.22430495  0.55739175  0.36607785     0.01300
H288        H  0.20740161  0.56850713  0.48271684     0.15000
H289        H  0.28330207  0.61082321  0.42569421     0.15100
N290        N  0.17081064  0.67541897  0.13340915    -0.01200
C291        C  0.15098809  0.65084897  0.08697295     0.01400
C292        C  0.15223094  0.68778469  0.05376042    -0.21500
C293        C  0.16856782  0.73576949  0.08103705    -0.21700
C294        C  0.17818815  0.72651752  0.12951953     0.01300
H295        H  0.13329821  0.67963631  0.01563188     0.15000
H296        H  0.16598128  0.77166448  0.06812095     0.15100
N297        N  0.34076743  0.82522164  0.36048039    -0.01200
C298        C  0.36803164  0.82947077  0.40624315     0.01400
C299        C  0.33073877  0.81020702  0.44003856    -0.23300
C300        C  0.28261871  0.81082002  0.41883766    -0.21700
C301        C  0.29158123  0.82401772  0.37148017     0.01300
H302        H  0.33961113  0.80992229  0.47979233     0.15000
H303        H  0.24706455  0.80708321  0.43731859     0.15100
N304        N  0.98863142  0.82643988  0.13251505    -0.01200
C305        C  0.50050639  0.84501321  0.08835491     0.01400
C306        C  0.47047061  0.80808485  0.04957118    -0.21500
C307        C  0.43821453  0.76584232  0.07047937    -0.21700
C308        C  0.45015571  0.77818231  0.12139631     0.01300
H309        H  0.46759714  0.81372598  0.01040897     0.15000
H310        H  0.40737043  0.73126821  0.05072103     0.15100
Zn311      Zn  0.48532873  0.55921500  0.03009302     1.49700
Zn312      Zn  0.44922870  0.94338041  0.02692119     1.49400
Zn313      Zn  0.99165639  0.99275557  0.42593342     1.49100
Zn314      Zn  0.06489824  0.99337172  0.02949487     1.49500
O315        O  0.99814786  0.00012292  0.00042865    -1.81900
O316        O  0.41902576  0.54300378  0.07171537    -0.72500
O317        O  0.42485078  0.88326129  0.47415641    -0.72300
O318        O  0.48036548  0.56250786  0.40081504    -0.71900
O319        O  0.38493353  0.95847102  0.04572007    -0.72500
O320        O  0.47489870  0.60088001  0.47467711    -0.72100
O321        O  0.43129230  0.91839020  0.40172324    -0.72700
O322        O  0.11128853  0.99757626  0.47656902    -0.72100
O323        O  0.48002677  0.92151385  0.08758184    -0.72900
O324        O  0.06587328  0.99733789  0.40361339    -0.72300
O325        O  0.05289199  0.92293543  0.05638429    -0.72700
O326        O  0.11177522  0.55755080  0.07408243    -0.72600
O327        O  0.05821674  0.60507350  0.06573725    -0.72400
C328        C  0.37996093  0.49889641  0.06678390     0.79400
C329        C  0.41246086  0.87912771  0.42725335     0.79900
C330        C  0.47834487  0.60231809  0.42795051     0.78800
C331        C  0.10962247  0.00209260  0.43030842     0.79200
C332        C  0.01346218  0.90060208  0.08016603     0.80300
C333        C  0.10431482  0.60135349  0.07771739     0.79400
Zn334      Zn  0.27355558  0.67576705  0.76704505     1.49700
Zn335      Zn  0.32198308  0.65134052  0.67135252     1.49400
Zn336      Zn  0.39949242  0.72681812  0.76524836     1.49100
Zn337      Zn  0.34881822  0.60090298  0.76892636     1.49500
O338        O  0.33619949  0.66346593  0.74365654    -1.81900
O339        O  0.21716153  0.67619483  0.71189505    -0.72500
O340        O  0.37812231  0.70580348  0.64158980    -0.72300
O341        O  0.38475503  0.78363283  0.80968711    -0.71900
O342        O  0.24873347  0.65317615  0.64423554    -0.72500
O343        O  0.29666918  0.74549642  0.81077277    -0.72100
O344        O  0.43251338  0.75917439  0.70505869    -0.72700
O345        O  0.42037420  0.61968387  0.81526397    -0.72100
O346        O  0.32487280  0.58255752  0.64552255    -0.72900
O347        O  0.45172952  0.70537227  0.80862656    -0.72300
O348        O  0.34167548  0.54428669  0.71165020    -0.72700
O349        O  0.29098718  0.56958223  0.81260834    -0.72600
O350        O  0.23902835  0.61901916  0.80911886    -0.72400
C351        C  0.21272864  0.66562731  0.66484529     0.79400
C352        C  0.41901579  0.74589822  0.65840055     0.79900
C353        C  0.34074616  0.78383226  0.82492741     0.78800
C354        C  0.45638284  0.66506141  0.82716867     0.79200
C355        C  0.33111443  0.54346926  0.66461210     0.80300
C356        C  0.25098054  0.58114946  0.82517547     0.79400
N357        N  0.50142863  0.67352429  0.86483577    -0.01200
C358        C  0.49677336  0.65614023  0.91143934     0.01400
C359        C  0.02667259  0.69618997  0.94709276    -0.21500
C360        C  0.05538163  0.73702895  0.92327852    -0.21700
C361        C  0.03982494  0.72232358  0.87321566     0.01300
H362        H  0.03308232  0.69414094  0.98681301     0.15000
H363        H  0.08571378  0.77327149  0.94074104     0.15100
Zn364      Zn  0.15036256  0.86085792  0.82724071     1.49700
Zn365      Zn  0.09720252  0.78693330  0.73524408     1.49400
Zn366      Zn  0.13513313  0.91365713  0.72851498     1.49100
Zn367      Zn  0.22048200  0.86076251  0.73879420     1.49500
O368        O  0.14963185  0.85569322  0.75704911    -1.81900
O369        O  0.08864420  0.80694819  0.85234007    -0.72500
O370        O  0.04068022  0.79914237  0.69025463    -0.72300
O371        O  0.14779215  0.97378528  0.78470248    -0.71900
O372        O  0.06483563  0.74235731  0.79107434    -0.72500
O373        O  0.15684394  0.93327440  0.85202425    -0.72100
O374        O  0.06107359  0.88559467  0.68774841    -0.72700
O375        O  0.26094908  0.92806597  0.71081897    -0.72100
O376        O  0.13039270  0.74730616  0.69167052    -0.72900
O377        O  0.18731367  0.93888303  0.67666853    -0.72300
O378        O  0.21132977  0.80548932  0.68358965    -0.72700
O379        O  0.26410907  0.84580193  0.79485430    -0.72600
O380        O  0.21315585  0.84442436  0.85628890    -0.72400
C381        C  0.06425536  0.75880635  0.83619692     0.79400
C382        C  0.03097608  0.83798532  0.67344575     0.79900
C383        C  0.15675457  0.97423234  0.83202670     0.78800
C384        C  0.23688974  0.94423751  0.67659602     0.79200
C385        C  0.17394694  0.76145575  0.67138172     0.80300
C386        C  0.25420677  0.83862240  0.83939755     0.79400
N387        N  0.31582228  0.49506103  0.63292340    -0.01200
C388        C  0.32604598  0.49300363  0.58425125     0.01400
C389        C  0.28070353  0.95887672  0.55438322    -0.21500
C390        C  0.24152317  0.93962351  0.58488389    -0.21700
C391        C  0.26427799  0.96168272  0.63233338     0.01300
H392        H  0.27809740  0.94548022  0.51533002     0.15000
H393        H  0.20207464  0.90994107  0.57416415     0.15100
N394        N  0.17331848  0.02256624  0.86411680    -0.01200
C395        C  0.16212215  0.52323939  0.91224185     0.01400
C396        C  0.20527509  0.55800870  0.94367488    -0.21500
C397        C  0.24459046  0.58003817  0.91455402    -0.21700
C398        C  0.22423920  0.55751607  0.86671826     0.01300
H399        H  0.20656264  0.56892327  0.98313532     0.15000
H400        H  0.28267049  0.61148624  0.92639177     0.15100
N401        N  0.17124376  0.67585915  0.63413367    -0.01200
C402        C  0.15145143  0.65128753  0.58769710     0.01400
C403        C  0.15275252  0.68821668  0.55446809    -0.21500
C404        C  0.16916036  0.73622095  0.58172856    -0.21700
C405        C  0.17874567  0.72697016  0.63022291     0.01300
H406        H  0.13385339  0.68006590  0.51633101     0.15000
H407        H  0.16662466  0.77212581  0.56879632     0.15100
N408        N  0.34071963  0.82536605  0.86172251    -0.01200
C409        C  0.36812880  0.82984553  0.90745159     0.01400
C410        C  0.33097642  0.81102308  0.94146756    -0.23300
C411        C  0.28278862  0.81147338  0.92027216    -0.21700
C412        C  0.29154246  0.82418821  0.87275251     0.01300
H413        H  0.34000197  0.81109347  0.98125441     0.15000
H414        H  0.24733281  0.80796894  0.93883340     0.15100
N415        N  0.98929534  0.82662279  0.63258792    -0.01200
C416        C  0.49967991  0.84454666  0.58828135     0.01400
C417        C  0.46938496  0.80739210  0.54976675    -0.21500
C418        C  0.43723644  0.76540011  0.57105453    -0.21700
C419        C  0.44947662  0.77813082  0.62191959     0.01300
H420        H  0.46627712  0.81273773  0.51054025     0.15000
H421        H  0.40629824  0.73071506  0.55157514     0.15100
Zn422      Zn  0.48518497  0.55965710  0.53075508     1.49700
Zn423      Zn  0.44858555  0.94292737  0.52627461     1.49400
Zn424      Zn  0.99099037  0.99369501  0.92596346     1.49100
Zn425      Zn  0.06558772  0.99330781  0.52955089     1.49500
O426        O  0.99875592  0.99970705  0.50026940    -1.81900
O427        O  0.41871540  0.54366045  0.57214734    -0.72500
O428        O  0.42572343  0.88358459  0.97493364    -0.72300
O429        O  0.48189309  0.56171971  0.90070456    -0.71900
O430        O  0.38454902  0.95818775  0.54530435    -0.72500
O431        O  0.47405121  0.60007665  0.97382935    -0.72100
O432        O  0.43134540  0.91867117  0.90247708    -0.72700
O433        O  0.11038667  0.99713316  0.97636481    -0.72100
O434        O  0.47909957  0.92089783  0.58691115    -0.72900
O435        O  0.06540070  0.99881700  0.90374245    -0.72300
O436        O  0.05382142  0.92288095  0.55622130    -0.72700
O437        O  0.11241816  0.55807795  0.57413187    -0.72600
O438        O  0.05860950  0.60547613  0.56681777    -0.72400
C439        C  0.37958380  0.49960714  0.56728017     0.79400
C440        C  0.41281884  0.87943520  0.92811327     0.79900
C441        C  0.47917493  0.60150123  0.92735266     0.78800
C442        C  0.10892063  0.00253410  0.93027203     0.79200
C443        C  0.01458393  0.90075321  0.58028054     0.80300
C444        C  0.10480642  0.60178150  0.57839063     0.79400
Zn445      Zn  0.77356223  0.17576551  0.26703545     1.49700
Zn446      Zn  0.82198515  0.15133572  0.17133926     1.49400
Zn447      Zn  0.89949446  0.22681169  0.26523373     1.49100
Zn448      Zn  0.84881642  0.10089568  0.26891460     1.49500
O449        O  0.83620181  0.16346010  0.24364372    -1.81900
O450        O  0.71717161  0.17619929  0.21188713    -0.72500
O451        O  0.87812236  0.20580128  0.14157506    -0.72300
O452        O  0.88476308  0.28362838  0.30967384    -0.71900
O453        O  0.74873468  0.15317195  0.14422545    -0.72500
O454        O  0.79667837  0.24549357  0.31076509    -0.72100
O455        O  0.93251330  0.25916936  0.20504535    -0.72700
O456        O  0.92037265  0.11967707  0.31525335    -0.72100
O457        O  0.82487514  0.08255242  0.14550830    -0.72900
O458        O  0.95172865  0.20536448  0.30861097    -0.72300
O459        O  0.84167115  0.04427950  0.21163709    -0.72700
O460        O  0.79098330  0.06957506  0.31259646    -0.72600
O461        O  0.73903097  0.11901812  0.30910760    -0.72400
C462        C  0.71273473  0.16562944  0.16483748     0.79400
C463        C  0.91901514  0.24589631  0.15838707     0.79900
C464        C  0.84075624  0.28382880  0.32491766     0.78800
C465        C  0.95638138  0.16505502  0.32715618     0.79200
C466        C  0.83111261  0.04346273  0.16459859     0.80300
C467        C  0.75097868  0.08114596  0.32516374     0.79400
N468        N  0.00142524  0.17352131  0.36482644    -0.01200
C469        C  0.99676534  0.15613847  0.41143030     0.01400
C470        C  0.52667418  0.19617956  0.44709679    -0.21500
C471        C  0.55538556  0.23701881  0.42328464    -0.21700
C472        C  0.53983124  0.22231556  0.37322134     0.01300
H473        H  0.53308264  0.19412939  0.48681739     0.15000
H474        H  0.58571808  0.27326059  0.44074916     0.15100
Zn475      Zn  0.65037511  0.36085772  0.32725393     1.49700
Zn476      Zn  0.59721233  0.28693198  0.23525275     1.49400
Zn477      Zn  0.63513741  0.41365547  0.22852862     1.49100
Zn478      Zn  0.72048891  0.36076559  0.23880143     1.49500
O479        O  0.64963962  0.35569262  0.25706124    -1.81900
O480        O  0.58865937  0.30694059  0.35235168    -0.72500
O481        O  0.54069010  0.29914212  0.19026231    -0.72300
O482        O  0.64779470  0.47378202  0.28471491    -0.71900
O483        O  0.56484193  0.24235389  0.29108069    -0.72500
O484        O  0.65685296  0.43327621  0.35203892    -0.72100
O485        O  0.56107876  0.38559457  0.18776234    -0.72700
O486        O  0.76095501  0.42807508  0.21083471    -0.72100
O487        O  0.63040566  0.24730689  0.19167904    -0.72900
O488        O  0.68731647  0.43888484  0.17668319    -0.72300
O489        O  0.71133630  0.30549737  0.18359053    -0.72700
O490        O  0.76411719  0.34580032  0.29485670    -0.72600
O491        O  0.71317234  0.34442555  0.35629781    -0.72400
C492        C  0.56426494  0.25880026  0.33620487     0.79400
C493        C  0.53098368  0.33798548  0.17345650     0.79900
C494        C  0.65675974  0.47423224  0.33203910     0.78800
C495        C  0.73689358  0.44424390  0.17661126     0.79200
C496        C  0.67395666  0.26146100  0.17138518     0.80300
C497        C  0.75421993  0.33862122  0.33940112     0.79400
N498        N  0.81581802  0.99505402  0.13291014    -0.01200
C499        C  0.82604181  0.99299362  0.08423813     0.01400
C500        C  0.78069740  0.45888338  0.05439517    -0.21500
C501        C  0.74152077  0.43962895  0.08489889    -0.21700
C502        C  0.76427917  0.46168843  0.13234740     0.01300
H503        H  0.77808797  0.44548770  0.01534125     0.15000
H504        H  0.70207180  0.40994604  0.07418145     0.15100
N505        N  0.67331981  0.52256825  0.36412577    -0.01200
C506        C  0.66212069  0.02323304  0.41223140     0.01400
C507        C  0.70526703  0.05801382  0.44366290    -0.21500
C508        C  0.74458125  0.08004716  0.41454208    -0.21700
C509        C  0.72423619  0.05751609  0.36670762     0.01300
H510        H  0.70655053  0.06893170  0.48312224     0.15000
H511        H  0.78265677  0.11150205  0.42637882     0.15100
N512        N  0.67125145  0.17586607  0.13412851    -0.01200
C513        C  0.65145425  0.15129637  0.08769209     0.01400
C514        C  0.65274909  0.18822762  0.05446682    -0.21500
C515        C  0.66916090  0.23623094  0.08172991    -0.21700
C516        C  0.67875327  0.22697797  0.13022236     0.01300
H517        H  0.63384421  0.18007877  0.01633156     0.15000
H518        H  0.66662248  0.27213648  0.06880163     0.15100
N519        N  0.84073349  0.32536278  0.36171454    -0.01200
C520        C  0.86814703  0.32984135  0.40744120     0.01400
C521        C  0.83099820  0.31101244  0.44145872    -0.23300
C522        C  0.78280849  0.31146397  0.42026928    -0.21700
C523        C  0.79155786  0.32418391  0.37275033     0.01300
H524        H  0.84002730  0.31107911  0.48124456     0.15000
H525        H  0.74735436  0.30795683  0.43883440     0.15100
N526        N  0.48930216  0.32662435  0.13259957    -0.01200
C527        C  0.99967253  0.34455634  0.08827533     0.01400
C528        C  0.96938255  0.30740251  0.04975816    -0.21500
C529        C  0.93723754  0.26540607  0.07104289    -0.21700
C530        C  0.94947461  0.27813388  0.12190843     0.01300
H531        H  0.96627596  0.31275049  0.01053243     0.15000
H532        H  0.90630317  0.23071923  0.05156096     0.15100
Zn533      Zn  0.98518797  0.05965893  0.03075572     1.49700
Zn534      Zn  0.94857890  0.44294192  0.02627839     1.49400
Zn535      Zn  0.49098658  0.49368726  0.42596924     1.49100
Zn536      Zn  0.56558793  0.49330684  0.02955331     1.49500
O537        O  0.49875553  0.49970676  0.00027490    -1.81900
O538        O  0.91871408  0.04365425  0.07214426    -0.72500
O539        O  0.92573810  0.38358300  0.47492373    -0.72300
O540        O  0.98189546  0.06171904  0.40069746    -0.71900
O541        O  0.88454266  0.45820000  0.04530764    -0.72500
O542        O  0.97404997  0.10007471  0.47382136    -0.72100
O543        O  0.93135234  0.41867297  0.40246933    -0.72700
O544        O  0.61038528  0.49713761  0.47637209    -0.72100
O545        O  0.97909243  0.42090882  0.08691352    -0.72900
O546        O  0.56539588  0.49880880  0.40374756    -0.72300
O547        O  0.55382128  0.42288285  0.05623036    -0.72700
O548        O  0.61242537  0.05808526  0.07412601    -0.72600
O549        O  0.55861281  0.10548002  0.06681931    -0.72400
C550        C  0.87958079  0.99960156  0.06726712     0.79400
C551        C  0.91283198  0.37943445  0.42810378     0.79900
C552        C  0.97917432  0.10149970  0.42734485     0.78800
C553        C  0.60891783  0.50253470  0.43027843     0.79200
C554        C  0.51458273  0.40075162  0.08028739     0.80300
C555        C  0.60481158  0.10178794  0.07838715     0.79400
Zn556      Zn  0.77342775  0.17547254  0.76609909     1.49700
Zn557      Zn  0.82195857  0.15121578  0.67017577     1.49400
Zn558      Zn  0.89924191  0.22644843  0.76412264     1.49100
Zn559      Zn  0.84849216  0.10058705  0.76780878     1.49500
O560        O  0.83596076  0.16315752  0.74249907    -1.81900
O561        O  0.71681111  0.17555645  0.71105899    -0.72500
O562        O  0.87836947  0.20579250  0.64052171    -0.72300
O563        O  0.88470104  0.28338241  0.80845749    -0.71900
O564        O  0.74863700  0.15319774  0.64325143    -0.72500
O565        O  0.79662160  0.24534665  0.80956782    -0.72100
O566        O  0.93266668  0.25877683  0.70424484    -0.72700
O567        O  0.91981592  0.11933090  0.81422714    -0.72100
O568        O  0.82480906  0.08227854  0.64439122    -0.72900
O569        O  0.95110357  0.20501070  0.80764704    -0.72300
O570        O  0.84168882  0.04416322  0.71062296    -0.72700
O571        O  0.79067317  0.06912620  0.81153010    -0.72600
O572        O  0.73917637  0.11901171  0.80856290    -0.72400
C573        C  0.71246520  0.16527788  0.66398018     0.79400
C574        C  0.91935042  0.24573772  0.65756037     0.79900
C575        C  0.84072493  0.28366062  0.82368564     0.78800
C576        C  0.95567287  0.16474204  0.82630590     0.79200
C577        C  0.83114426  0.04326066  0.66358275     0.80300
C578        C  0.75094486  0.08097777  0.82444171     0.79400
N579        N  0.99999838  0.17332643  0.86476256    -0.01200
C580        C  0.99287209  0.15675072  0.91148060     0.01400
C581        C  0.52921010  0.19653023  0.94713956    -0.21500
C582        C  0.55747094  0.23736034  0.92307940    -0.21700
C583        C  0.54089929  0.22277582  0.87313872     0.01300
H584        H  0.53628131  0.19440762  0.98677929     0.15000
H585        H  0.58817746  0.27350316  0.94026376     0.15100
Zn586      Zn  0.65062319  0.36102129  0.82644498     1.49700
Zn587      Zn  0.59709958  0.28692892  0.73471382     1.49400
Zn588      Zn  0.63484454  0.41377603  0.72789564     1.49100
Zn589      Zn  0.72023483  0.36071157  0.73770758     1.49500
O590        O  0.64954322  0.35577604  0.75622951    -1.81900
O591        O  0.58902839  0.30738538  0.85187721    -0.72500
O592        O  0.54038244  0.29905234  0.68990962    -0.72300
O593        O  0.64770843  0.47395209  0.78425291    -0.71900
O594        O  0.56514534  0.24260765  0.79079282    -0.72500
O595        O  0.65742583  0.43341256  0.85137134    -0.72100
O596        O  0.56058795  0.38550245  0.68742723    -0.72700
O597        O  0.76038088  0.42786847  0.70935580    -0.72100
O598        O  0.63005609  0.24699744  0.69114706    -0.72900
O599        O  0.68673118  0.43912115  0.67576499    -0.72300
O600        O  0.71085285  0.30517736  0.68267372    -0.72700
O601        O  0.76418205  0.34592593  0.79368514    -0.72600
O602        O  0.71330422  0.34437365  0.85520221    -0.72400
C603        C  0.56476760  0.25918557  0.83591403     0.79400
C604        C  0.53052159  0.33786130  0.67318863     0.79900
C605        C  0.65705430  0.47436458  0.83154342     0.78800
C606        C  0.73625127  0.44433382  0.67541867     0.79200
C607        C  0.67351066  0.26107105  0.67069913     0.80300
C608        C  0.75431899  0.33861472  0.83822142     0.79400
N609        N  0.81582450  0.99474519  0.63207700    -0.01200
C610        C  0.82628352  0.99222977  0.58350360     0.01400
C611        C  0.78063968  0.45933056  0.55342851    -0.21500
C612        C  0.74115955  0.44013732  0.58369518    -0.21700
C613        C  0.76362209  0.46216173  0.63123082     0.01300
H614        H  0.77831960  0.44589548  0.51442591     0.15000
H615        H  0.70177336  0.41041084  0.57279746     0.15100
N616        N  0.67350322  0.52259468  0.86380157    -0.01200
C617        C  0.66233320  0.02329844  0.91184268     0.01400
C618        C  0.70580012  0.05772992  0.94318730    -0.21500
C619        C  0.74502045  0.07963557  0.91392424    -0.21700
C620        C  0.72430814  0.05739017  0.86608135     0.01300
H621        H  0.70739466  0.06851002  0.98271738     0.15000
H622        H  0.78330009  0.11082429  0.92569944     0.15100
N623        N  0.67081764  0.17540859  0.63340974    -0.01200
C624        C  0.65099990  0.15084084  0.58697178     0.01400
C625        C  0.65224084  0.18777877  0.55376199    -0.21500
C626        C  0.66857184  0.23576161  0.58104175    -0.21700
C627        C  0.67819032  0.22650674  0.62952350     0.01300
H628        H  0.63331054  0.17963204  0.51563261     0.15000
H629        H  0.66598340  0.27165695  0.56812758     0.15100
N630        N  0.84077639  0.32522210  0.86048230    -0.01200
C631        C  0.86804448  0.32947333  0.90624355     0.01400
C632        C  0.83075429  0.31019819  0.94003876    -0.23300
C633        C  0.78263113  0.31080865  0.91884238    -0.21700
C634        C  0.79158997  0.32401306  0.87148618     0.01300
H635        H  0.83962907  0.30990875  0.97979140     0.15000
H636        H  0.74707669  0.30706454  0.93732550     0.15100
N637        N  0.48863183  0.32642471  0.63251262    -0.01200
C638        C  0.00051509  0.34501193  0.58835457     0.01400
C639        C  0.97048681  0.30807917  0.54957105    -0.21500
C640        C  0.93823067  0.26583684  0.57047938    -0.21700
C641        C  0.95016442  0.27818141  0.62139629     0.01300
H642        H  0.96761686  0.31371734  0.51040783     0.15000
H643        H  0.90739134  0.23125967  0.55072078     0.15100
Zn644      Zn  0.98532728  0.05921425  0.53008549     1.49700
Zn645      Zn  0.94923122  0.44337715  0.52691234     1.49400
Zn646      Zn  0.49165419  0.49275623  0.92593841     1.49100
Zn647      Zn  0.56489458  0.49336721  0.52950243     1.49500
O648        O  0.49814342  0.50011719  0.50043528    -1.81900
O649        O  0.91902621  0.04300308  0.57171003    -0.72500
O650        O  0.92484397  0.38327761  0.97416049    -0.72300
O651        O  0.98036765  0.06251844  0.90081630    -0.71900
O652        O  0.88493249  0.45846258  0.54570823    -0.72500
O653        O  0.97490160  0.10088435  0.97468185    -0.72100
O654        O  0.93129641  0.41839840  0.90172344    -0.72700
O655        O  0.61128658  0.49757044  0.97656797    -0.72100
O656        O  0.98002487  0.42150703  0.58757382    -0.72900
O657        O  0.56586941  0.49733824  0.90361519    -0.72300
O658        O  0.55288872  0.42292634  0.55638521    -0.72700
O659        O  0.61179373  0.05754234  0.57406501    -0.72600
O660        O  0.55822831  0.10506040  0.56574055    -0.72400
C661        C  0.87996382  0.99889427  0.56678315     0.79400
C662        C  0.91246354  0.37913787  0.92725565     0.79900
C663        C  0.97834543  0.10232596  0.92795537     0.78800
C664        C  0.60961881  0.50208866  0.93030746     0.79200
C665        C  0.51345971  0.40059051  0.58016713     0.80300
C666        C  0.60432927  0.10134292  0.57771175     0.79400
Zn667      Zn  0.77341694  0.67536300  0.26658626     1.49700
Zn668      Zn  0.82187640  0.65151225  0.17069847     1.49400
Zn669      Zn  0.89969545  0.72667053  0.26463202     1.49100
Zn670      Zn  0.84919715  0.60098725  0.26849335     1.49500
O671        O  0.83624018  0.66338944  0.24306550    -1.81900
O672        O  0.71630832  0.67515856  0.21163542    -0.72500
O673        O  0.87842664  0.70575915  0.14091623    -0.72300
O674        O  0.88478606  0.78349076  0.30886560    -0.71900
O675        O  0.74877816  0.65408508  0.14374709    -0.72500
O676        O  0.79665934  0.74534059  0.30985136    -0.72100
O677        O  0.93290069  0.75892217  0.20446319    -0.72700
O678        O  0.92077786  0.61978754  0.31490723    -0.72100
O679        O  0.82411984  0.58233334  0.14500193    -0.72900
O680        O  0.95197934  0.70544177  0.30827036    -0.72300
O681        O  0.84248622  0.54471375  0.21108750    -0.72700
O682        O  0.79134220  0.56932891  0.31230501    -0.72600
O683        O  0.73955977  0.61894297  0.30931508    -0.72400
C684        C  0.71226850  0.66553580  0.16448986     0.79400
C685        C  0.91941848  0.74575922  0.15779099     0.79900
C686        C  0.84073081  0.78369523  0.32400671     0.78800
C687        C  0.95670282  0.66518863  0.32688658     0.79200
C688        C  0.83117080  0.54356731  0.16410981     0.80300
C689        C  0.75149057  0.58099600  0.32521863     0.79400
N690        N  0.00163849  0.67374045  0.36475311    -0.01200
C691        C  0.99645667  0.65667451  0.41149515     0.01400
C692        C  0.52325463  0.69742115  0.44748819    -0.21500
C693        C  0.55246165  0.73812764  0.42375473    -0.21700
C694        C  0.53865287  0.72268093  0.37360445     0.01300
H695        H  0.52851864  0.69590354  0.48738117     0.15000
H696        H  0.58194551  0.77478784  0.44138082     0.15100
Zn697      Zn  0.65016158  0.86049095  0.32715812     1.49700
Zn698      Zn  0.59678162  0.78653839  0.23549210     1.49400
Zn699      Zn  0.63492307  0.91335945  0.22847012     1.49100
Zn700      Zn  0.71997559  0.86063093  0.23856362     1.49500
O701        O  0.64920996  0.85537539  0.25702512    -1.81900
O702        O  0.58828040  0.80698944  0.35247051    -0.72500
O703        O  0.54018498  0.79872005  0.19055608    -0.72300
O704        O  0.64785010  0.97356613  0.28469343    -0.71900
O705        O  0.56440268  0.74212138  0.29149973    -0.72500
O706        O  0.65706318  0.93298819  0.35193118    -0.72100
O707        O  0.56083596  0.88520193  0.18786768    -0.72700
O708        O  0.76063569  0.92804117  0.21091364    -0.72100
O709        O  0.63002645  0.74690641  0.19191695    -0.72900
O710        O  0.68696245  0.93847747  0.17647401    -0.72300
O711        O  0.71052450  0.80556665  0.18320473    -0.72700
O712        O  0.76373989  0.84547919  0.29427776    -0.72600
O713        O  0.71285912  0.84370576  0.35583807    -0.72400
C714        C  0.56373043  0.75882579  0.33652969     0.79400
C715        C  0.53061721  0.83760263  0.17367367     0.79900
C716        C  0.65695169  0.97397416  0.33200501     0.78800
C717        C  0.73660543  0.94406410  0.17657026     0.79200
C718        C  0.67337623  0.76133216  0.17129986     0.80300
C719        C  0.75391816  0.83808144  0.33879650     0.79400
N720        N  0.81594498  0.49500969  0.13267883    -0.01200
C721        C  0.82624483  0.49250261  0.08404933     0.01400
C722        C  0.78046971  0.95965685  0.05443370    -0.21500
C723        C  0.74133844  0.94006097  0.08488105    -0.21700
C724        C  0.76413900  0.96168463  0.13243216     0.01300
H725        H  0.77781217  0.94667509  0.01526702     0.15000
H726        H  0.70184590  0.91050549  0.07401518     0.15100
N727        N  0.67327614  0.02221847  0.36421597    -0.01200
C728        C  0.66202264  0.52376967  0.41211355     0.01400
C729        C  0.70552822  0.55783894  0.44366150    -0.21500
C730        C  0.74518265  0.57926267  0.41465236    -0.21700
C731        C  0.72467238  0.55713677  0.36672911     0.01300
H732        H  0.70691738  0.56869894  0.48314764     0.15000
H733        H  0.78358361  0.61020429  0.42661524     0.15100
N734        N  0.67060985  0.67575427  0.13395262    -0.01200
C735        C  0.65105825  0.65148575  0.08735913     0.01400
C736        C  0.65307353  0.68863094  0.05421091    -0.21500
C737        C  0.66947133  0.73652208  0.08165108    -0.21700
C738        C  0.67828209  0.72691414  0.13015791     0.01300
H739        H  0.63466115  0.68074063  0.01591913     0.15000
H740        H  0.66741695  0.77261272  0.06875673     0.15100
N741        N  0.84065373  0.82518302  0.36082819    -0.01200
C742        C  0.86815870  0.82966621  0.40651989     0.01400
C743        C  0.83110998  0.81059581  0.44055913    -0.23300
C744        C  0.78279565  0.81081046  0.41945958    -0.21700
C745        C  0.79142207  0.82370961  0.37197677     0.01300
H746        H  0.84021884  0.81061628  0.48032505     0.15000
H747        H  0.74732962  0.80706916  0.43808047     0.15100
N748        N  0.48904721  0.82630535  0.13274056    -0.01200
C749        C  0.99945910  0.84519266  0.08802101     0.01400
C750        C  0.96905681  0.80822980  0.04940611    -0.21500
C751        C  0.93732891  0.76587856  0.07052508    -0.21700
C752        C  0.94986699  0.77820230  0.12140571     0.01300
H753        H  0.96558032  0.81390585  0.01027661     0.15000
H754        H  0.90635405  0.73127487  0.05095790     0.15100
Zn755      Zn  0.98545468  0.55886288  0.03039086     1.49700
Zn756      Zn  0.94809176  0.94366104  0.02603537     1.49400
Zn757      Zn  0.49129679  0.99276378  0.42599986     1.49100
Zn758      Zn  0.56591953  0.99292139  0.02964281     1.49500
O759        O  0.49903067  0.99974942  0.00083535    -1.81900
O760        O  0.91887278  0.54307888  0.07167397    -0.72500
O761        O  0.92579991  0.88333628  0.47404915    -0.72300
O762        O  0.98140542  0.56189682  0.40072777    -0.71900
O763        O  0.88414162  0.95898912  0.04492686    -0.72500
O764        O  0.97679442  0.60087338  0.47455341    -0.72100
O765        O  0.93126728  0.91859435  0.40171353    -0.72700
O766        O  0.61076939  0.99603438  0.47646560    -0.72100
O767        O  0.97823995  0.92123583  0.08667107    -0.72900
O768        O  0.56558968  0.99769672  0.40392082    -0.72300
O769        O  0.55398359  0.92247081  0.05637623    -0.72700
O770        O  0.61150624  0.55828588  0.07450469    -0.72600
O771        O  0.55824299  0.60597222  0.06515797    -0.72400
C772        C  0.87984468  0.49896892  0.06720259     0.79400
C773        C  0.91280613  0.87927332  0.42724826     0.79900
C774        C  0.98016550  0.60209003  0.42779496     0.78800
C775        C  0.60915756  0.00150459  0.43039734     0.79200
C776        C  0.51481219  0.90045013  0.08055140     0.80300
C777        C  0.60420983  0.60216017  0.07768417     0.79400
Zn778      Zn  0.77327712  0.67580238  0.76594440     1.49700
Zn779      Zn  0.82180392  0.65202117  0.67005670     1.49400
Zn780      Zn  0.89957441  0.72674334  0.76413714     1.49100
Zn781      Zn  0.84864957  0.60110788  0.76767557     1.49500
O782        O  0.83599170  0.66367148  0.74239904    -1.81900
O783        O  0.71617679  0.67559101  0.71105997    -0.72500
O784        O  0.87861403  0.70621380  0.64048294    -0.72300
O785        O  0.88486103  0.78372227  0.80820483    -0.71900
O786        O  0.74884928  0.65487249  0.64315047    -0.72500
O787        O  0.79667445  0.74587251  0.80896800    -0.72100
O788        O  0.93315145  0.75897819  0.70420879    -0.72700
O789        O  0.92008390  0.61953955  0.81415421    -0.72100
O790        O  0.82381027  0.58277543  0.64423368    -0.72900
O791        O  0.95149699  0.70525347  0.80788935    -0.72300
O792        O  0.84175335  0.54488149  0.71027393    -0.72700
O793        O  0.79080357  0.56953510  0.81140077    -0.72600
O794        O  0.73943689  0.61956261  0.80886965    -0.72400
C795        C  0.71226415  0.66616558  0.66391042     0.79400
C796        C  0.91975434  0.74600067  0.65751746     0.79900
C797        C  0.84080861  0.78412617  0.82317914     0.78800
C798        C  0.95603281  0.66487671  0.82638607     0.79200
C799        C  0.83060514  0.54387871  0.66330215     0.80300
C800        C  0.75118924  0.58143652  0.82456835     0.79400
N801        N  0.00068427  0.67320692  0.86450157    -0.01200
C802        C  0.99470981  0.65615999  0.91119773     0.01400
C803        C  0.53070911  0.69531787  0.94702226    -0.21500
C804        C  0.55880203  0.73626901  0.92299221    -0.21700
C805        C  0.54109882  0.72230986  0.87315867     0.01300
H806        H  0.53836344  0.69263627  0.98648052     0.15000
H807        H  0.59013526  0.77205184  0.94007225     0.15100
Zn808      Zn  0.65017169  0.86076636  0.82662955     1.49700
Zn809      Zn  0.59682979  0.78698526  0.73495618     1.49400
Zn810      Zn  0.63484939  0.91364237  0.72783555     1.49100
Zn811      Zn  0.71995642  0.86107110  0.73798779     1.49500
O812        O  0.64920845  0.85576207  0.75647707    -1.81900
O813        O  0.58848830  0.80711725  0.85197815    -0.72500
O814        O  0.53988081  0.79892649  0.69051960    -0.72300
O815        O  0.64781157  0.97379011  0.78416151    -0.71900
O816        O  0.56513094  0.74239604  0.79088239    -0.72500
O817        O  0.65679275  0.93311242  0.85140349    -0.72100
O818        O  0.56059781  0.88536017  0.68746994    -0.72700
O819        O  0.76055603  0.92852517  0.71042588    -0.72100
O820        O  0.62991796  0.74758331  0.69108005    -0.72900
O821        O  0.68682448  0.93855162  0.67562772    -0.72300
O822        O  0.71057012  0.80606774  0.68256774    -0.72700
O823        O  0.76372446  0.84589730  0.79365698    -0.72600
O824        O  0.71299569  0.84411577  0.85534109    -0.72400
C825        C  0.56456647  0.75888442  0.83598227     0.79400
C826        C  0.53024636  0.83773341  0.67357931     0.79900
C827        C  0.65675883  0.97412172  0.83148882     0.78800
C828        C  0.73650361  0.94420639  0.67583194     0.79200
C829        C  0.67331260  0.76192499  0.67054496     0.80300
C830        C  0.75400342  0.83848337  0.83819429     0.79400
N831        N  0.81535560  0.49538010  0.63180120    -0.01200
C832        C  0.82604262  0.49290525  0.58330456     0.01400
C833        C  0.78082001  0.95862132  0.55374537    -0.21500
C834        C  0.74151661  0.93938742  0.58413604    -0.21700
C835        C  0.76411217  0.96146988  0.63162180     0.01300
H836        H  0.77832395  0.94527022  0.51469483     0.15000
H837        H  0.70206328  0.90975074  0.57331653     0.15100
N838        N  0.67323460  0.02234617  0.86372914    -0.01200
C839        C  0.66259391  0.52345201  0.91192459     0.01400
C840        C  0.70612061  0.55774085  0.94331582    -0.21500
C841        C  0.74534950  0.57970528  0.91407371    -0.21700
C842        C  0.72459790  0.55764192  0.86618496     0.01300
H843        H  0.70774349  0.56843930  0.98286640     0.15000
H844        H  0.78364642  0.61085053  0.92590047     0.15100
N845        N  0.67059170  0.67634205  0.63340100    -0.01200
C846        C  0.65074705  0.65178052  0.58697526     0.01400
C847        C  0.65222568  0.68870322  0.55369288    -0.21500
C848        C  0.66874675  0.73672953  0.58091881    -0.21700
C849        C  0.67815569  0.72745024  0.62943284     0.01300
H850        H  0.63333869  0.68056645  0.51554894     0.15000
H851        H  0.66634999  0.77267262  0.56795009     0.15100
N852        N  0.84080807  0.82566960  0.85997082    -0.01200
C853        C  0.86826640  0.82996351  0.90564231     0.01400
C854        C  0.83113684  0.80993919  0.93938937    -0.23300
C855        C  0.78278533  0.81025204  0.91843637    -0.21700
C856        C  0.79155090  0.82399538  0.87121010     0.01300
H857        H  0.84014601  0.80934901  0.97907217     0.15000
H858        H  0.74718963  0.80595603  0.93702065     0.15100
N859        N  0.48843827  0.82625406  0.63285957    -0.01200
C860        C  0.00048249  0.84535474  0.58815385     0.01400
C861        C  0.97038238  0.80838326  0.54942990    -0.21500
C862        C  0.93839700  0.76606625  0.57040726    -0.21700
C863        C  0.95053540  0.77840848  0.62131046     0.01300
H864        H  0.96729281  0.81401655  0.51027540     0.15000
H865        H  0.90754411  0.73145645  0.55071301     0.15100
Zn866      Zn  0.98601302  0.55937305  0.53083529     1.49700
Zn867      Zn  0.94900023  0.94321148  0.52604014     1.49400
Zn868      Zn  0.49157835  0.99302708  0.92638151     1.49100
Zn869      Zn  0.56529700  0.99236310  0.52948356     1.49500
O870        O  0.49851862  0.99926952  0.50040522    -1.81900
O871        O  0.91872015  0.54357538  0.57120887    -0.72500
O872        O  0.92427697  0.88414912  0.97379369    -0.72300
O873        O  0.98102097  0.56164990  0.90045971    -0.71900
O874        O  0.88471928  0.95830032  0.54456696    -0.72500
O875        O  0.97532974  0.60014888  0.97416589    -0.72100
O876        O  0.93114225  0.91920521  0.90135630    -0.72700
O877        O  0.61123034  0.99662240  0.97641512    -0.72100
O878        O  0.97955854  0.92159052  0.58699439    -0.72900
O879        O  0.56572831  0.99775493  0.90390533    -0.72300
O880        O  0.55326845  0.92186401  0.55613228    -0.72700
O881        O  0.61136722  0.55855670  0.57399685    -0.72600
O882        O  0.55787693  0.60615888  0.56599738    -0.72400
C883        C  0.87985396  0.49935252  0.56694562     0.79400
C884        C  0.91224833  0.87991301  0.92683772     0.79900
C885        C  0.97906504  0.60156518  0.92746790     0.78800
C886        C  0.60943407  0.00179070  0.93027919     0.79200
C887        C  0.51394983  0.89986898  0.58014164     0.80300
C888        C  0.60397970  0.60237892  0.57776614     0.79400
loop_ 
_geom_bond_atom_site_label_1 
_geom_bond_atom_site_label_2 
_geom_bond_distance 
_geom_bond_site_symmetry_2 
_ccdc_geom_bond_type 
Zn1           O5   1.953       .  S
Zn1           O6   2.032       .  S
Zn1          O10   2.034       .  S
Zn1          O17   1.995       .  S
Zn2           O5   1.946       .  S
Zn2           O7   1.983       .  S
Zn2           O9   2.043       .  S
Zn2          O13   1.984       .  S
Zn3           O5   1.963       .  S
Zn3           O8   2.054       .  S
Zn3          O11   2.024       .  S
Zn3          O14   2.008       .  S
Zn4           O5   2.000       .  S
Zn4          O12   2.074       .  S
Zn4          O15   2.054       .  S
Zn4          O16   2.009       .  S
O6           C18   1.273       .  A
O7           C19   1.271       .  A
O8           C20   1.273       .  A
O9           C18   1.275       .  A
O10          C20   1.280       .  A
O11          C19   1.275       .  A
O12          C21   1.275       .  A
O13          C22   1.270       .  A
O14          C21   1.277       .  A
O15          C22   1.278       .  A
O16          C23   1.273       .  A
O17          C23   1.272       .  A
C18          N68   1.441       .  S
C19          C86   1.472       .  S
C20          N75   1.454       .  S
C21          N24   1.451       .  S
C22          N54   1.433   1_545  S
C23          C65   1.452       .  S
N24          C25   1.380       .  A
N24         C472   1.373       .  A
C25         C108   1.508       .  S
C25         C470   1.391       .  A
C26          C27   1.354       .  A
C26         C469   1.390   1_455  A
C26          H29   1.083       .  S
C27          C28   1.374       .  A
C27          H30   1.083       .  S
C28          C48   1.487       .  S
C28         N468   1.372       .  A
Zn31         O35   1.892       .  S
Zn31         O36   1.993       .  S
Zn31         O40   1.980       .  S
Zn31         O47   1.988       .  S
Zn32         O35   1.925       .  S
Zn32         O37   1.984       .  S
Zn32         O39   2.059       .  S
Zn32         O43   1.994       .  S
Zn33         O35   1.941       .  S
Zn33         O38   2.074       .  S
Zn33         O41   2.040       .  S
Zn33         O44   2.044       .  S
Zn34         O35   1.945       .  S
Zn34         O42   2.014       .  S
Zn34         O45   1.981       .  S
Zn34         O46   1.981       .  S
O36          C48   1.272       .  A
O37          C49   1.275       .  A
O38          C50   1.282       .  A
O39          C48   1.274       .  A
O40          C50   1.274       .  A
O41          C49   1.279       .  A
O42          C51   1.270       .  A
O43          C52   1.272       .  A
O44          C51   1.275       .  A
O45          C52   1.267       .  A
O46          C53   1.269       .  A
O47          C53   1.271       .  A
C49          N82   1.435   1_455  S
C50          N61   1.435       .  S
C51          C58   1.476       .  S
C52          C72   1.448       .  S
C53          C79   1.457       .  S
N54          C55   1.368       .  A
N54         C280   1.360       .  A
C55         C106   1.488       .  S
C55         C278   1.387       .  A
C56          C57   1.367       .  A
C56         C277   1.387       .  A
C56          H59   1.083       .  S
C57          C58   1.375       .  A
C57          H60   1.082       .  S
C58         N276   1.360       .  A
N61         C287   1.358       .  A
N61         C284   1.358       .  A
C62         C331   1.470       .  S
C62         N283   1.358       .  A
C62          C63   1.385       .  A
C63          C64   1.358       .  A
C63          H66   1.083       .  S
C64          C65   1.375       .  A
C64          H67   1.083       .  S
C65         N283   1.358       .  A
N68          C72   1.349       .  A
N68          C69   1.355       .  A
C69         C111   1.473       .  S
C69          C70   1.389       .  A
C70          C71   1.365       .  A
C70          H73   1.083       .  S
C71          C72   1.374       .  A
C71          H74   1.083       .  S
N75          C79   1.354       .  A
N75          C76   1.359       .  A
C76         C107   1.494       .  S
C76          C77   1.398       .  A
C77          C78   1.364       .  A
C77          H80   1.084       .  S
C78          C79   1.373       .  A
C78          H81   1.083       .  S
N82         C530   1.356       .  A
N82         C527   1.355       .  A
C83         C554   1.460       .  S
C83         N526   1.355       .  A
C83          C84   1.383       .  A
C84          C85   1.368       .  A
C84          H87   1.082       .  S
C85          C86   1.380       .  A
C85          H88   1.082       .  S
C86         N526   1.357       .  A
Zn89        O759   1.914   1_545  S
Zn89         O94   2.106       .  S
Zn89        O209   2.007   1_554  S
Zn89        O549   2.025       .  S
Zn90        O537   1.872       .  S
Zn90         O97   1.983       .  S
Zn90        O101   1.993       .  S
Zn90        O206   1.966   1_554  S
Zn91        O204   1.998       .  S
Zn91        O102   2.074   1_655  S
Zn91        O762   2.138       .  S
Zn91        O543   2.121       .  S
Zn92         O93   1.955   1_455  S
Zn92        O103   2.029       .  S
Zn92        O211   1.937   1_554  S
Zn92        O326   2.020       .  S
O93        Zn755   1.913       .  S
O93        Zn534   1.873       .  S
O93        Zn202   1.997   1_554  S
O94         C106   1.279   1_545  A
O95        Zn201   1.963       .  S
O95         C107   1.272       .  A
O96        Zn757   2.138   1_545  S
O96         C108   1.285       .  A
O97         C328   1.271       .  A
O98        Zn200   2.008       .  S
O98         C108   1.278       .  A
O99        Zn535   2.123       .  S
O99         C107   1.290       .  A
O100       Zn203   1.939       .  S
O100        C109   1.265       .  A
O101        C554   1.264       .  A
O102        C109   1.279       .  A
O103        C110   1.269       .  A
O104       Zn314   2.019   1_545  S
O104        C111   1.273       .  A
O105       Zn533   2.023   1_455  S
O105        C111   1.280       .  A
C106        O319   1.271       .  A
C109        C284   1.469       .  S
C110        O545   1.263   1_455  A
C110        C527   1.459   1_455  S
Zn112       O116   1.954       .  S
Zn112       O117   2.034       .  S
Zn112       O121   2.036       .  S
Zn112       O128   1.995       .  S
Zn113       O116   1.947       .  S
Zn113       O118   1.983       .  S
Zn113       O120   2.044       .  S
Zn113       O124   1.984       .  S
Zn114       O116   1.963       .  S
Zn114       O119   2.055       .  S
Zn114       O122   2.027       .  S
Zn114       O125   2.009       .  S
Zn115       O116   2.001       .  S
Zn115       O123   2.075       .  S
Zn115       O126   2.056       .  S
Zn115       O127   2.011       .  S
O117        C129   1.273       .  A
O118        C130   1.271       .  A
O119        C131   1.273       .  A
O120        C129   1.275       .  A
O121        C131   1.280       .  A
O122        C130   1.276       .  A
O123        C132   1.276       .  A
O124        C133   1.270       .  A
O125        C132   1.278       .  A
O126        C133   1.278       .  A
O127        C134   1.273       .  A
O128        C134   1.272       .  A
C129        N179   1.442       .  S
C130        C197   1.472       .  S
C131        N186   1.454       .  S
C132        N135   1.451       .  S
C133        N165   1.433   1_545  S
C134        C176   1.452       .  S
N135        C583   1.373       .  A
N135        C136   1.379       .  A
C136        C219   1.507       .  S
C136        C581   1.390       .  A
C137        C580   1.391   1_455  A
C137        C138   1.354       .  A
C137        H140   1.083       .  S
C138        C139   1.374       .  A
C138        H141   1.083       .  S
C139        C159   1.489       .  S
C139        N579   1.373   1_455  A
Zn142       O146   1.891       .  S
Zn142       O147   1.994       .  S
Zn142       O151   1.981       .  S
Zn142       O158   1.987       .  S
Zn143       O146   1.927       .  S
Zn143       O148   1.987       .  S
Zn143       O150   2.064       .  S
Zn143       O154   1.996       .  S
Zn144       O146   1.941       .  S
Zn144       O149   2.074       .  S
Zn144       O152   2.040       .  S
Zn144       O155   2.041       .  S
Zn145       O146   1.946       .  S
Zn145       O153   2.015       .  S
Zn145       O156   1.980       .  S
Zn145       O157   1.981       .  S
O147        C159   1.272       .  A
O148        C160   1.276       .  A
O149        C161   1.282       .  A
O150        C159   1.275       .  A
O151        C161   1.274       .  A
O152        C160   1.279       .  A
O153        C162   1.270       .  A
O154        C163   1.272       .  A
O155        C162   1.275       .  A
O156        C163   1.267       .  A
O157        C164   1.269       .  A
O158        C164   1.271       .  A
C160        N193   1.435   1_455  S
C161        N172   1.435       .  S
C162        C169   1.475       .  S
C163        C183   1.448       .  S
C164        C190   1.457       .  S
N165        C391   1.360       .  A
N165        C166   1.368       .  A
C166        C217   1.488       .  S
C166        C389   1.387       .  A
C167        C388   1.387       .  A
C167        C168   1.366       .  A
C167        H170   1.083       .  S
C168        C169   1.375       .  A
C168        H171   1.082       .  S
C169        N387   1.360       .  A
N172        C398   1.358       .  A
N172        C395   1.357       .  A
C173        C442   1.470       .  S
C173        N394   1.358       .  A
C173        C174   1.384       .  A
C174        C175   1.358       .  A
C174        H177   1.083       .  S
C175        C176   1.375       .  A
C175        H178   1.083       .  S
C176        N394   1.358       .  A
N179        C183   1.349       .  A
N179        C180   1.355       .  A
C180        C222   1.473       .  S
C180        C181   1.389       .  A
C181        C182   1.365       .  A
C181        H184   1.083       .  S
C182        C183   1.374       .  A
C182        H185   1.083       .  S
N186        C190   1.354       .  A
N186        C187   1.359       .  A
C187        C218   1.493       .  S
C187        C188   1.398       .  A
C188        C189   1.363       .  A
C188        H191   1.084       .  S
C189        C190   1.373       .  A
C189        H192   1.083       .  S
N193        C641   1.357       .  A
N193        C638   1.355   1_655  A
C194        C665   1.460       .  S
C194        N637   1.355       .  A
C194        C195   1.383       .  A
C195        C196   1.368       .  A
C195        H198   1.082       .  S
C196        C197   1.380       .  A
C196        H199   1.082       .  S
C197        N637   1.357       .  A
Zn200       O870   1.913   1_545  S
Zn200       O205   2.106       .  S
Zn200       O660   2.023       .  S
Zn201       O648   1.873       .  S
Zn201       O208   1.981       .  S
Zn201       O212   1.992       .  S
Zn202       O873   2.138       .  S
Zn202       O654   2.121       .  S
Zn202       O213   2.073   1_655  S
Zn203       O204   1.955   1_455  S
Zn203       O214   2.029       .  S
Zn203       O437   2.019       .  S
O204       Zn866   1.914       .  S
O204       Zn645   1.875       .  S
O205        C217   1.279   1_545  A
O206        C218   1.272       .  A
O207       Zn868   2.138   1_545  S
O207        C219   1.285       .  A
O208        C439   1.270       .  A
O209        C219   1.278       .  A
O210       Zn646   2.121       .  S
O210        C218   1.290       .  A
O211        C220   1.265       .  A
O212        C665   1.264       .  A
O213        C220   1.279       .  A
O214        C221   1.269       .  A
O215       Zn425   2.018   1_545  S
O215        C222   1.273       .  A
O216       Zn644   2.027   1_455  S
O216        C222   1.281       .  A
C217        O430   1.271       .  A
C220        C395   1.468       .  S
C221        O656   1.264   1_455  A
C221        C638   1.460       .  S
Zn223       O227   1.952       .  S
Zn223       O228   2.029       .  S
Zn223       O232   2.036       .  S
Zn223       O239   1.993       .  S
Zn224       O227   1.946       .  S
Zn224       O229   1.984       .  S
Zn224       O231   2.043       .  S
Zn224       O235   1.985       .  S
Zn225       O227   1.961       .  S
Zn225       O230   2.054       .  S
Zn225       O233   2.023       .  S
Zn225       O236   2.002       .  S
Zn226       O227   2.000       .  S
Zn226       O234   2.070       .  S
Zn226       O237   2.054       .  S
Zn226       O238   2.008       .  S
O228        C240   1.273       .  A
O229        C241   1.271       .  A
O230        C242   1.273       .  A
O231        C240   1.276       .  A
O232        C242   1.280       .  A
O233        C241   1.275       .  A
O234        C243   1.275       .  A
O235        C244   1.270       .  A
O236        C243   1.277       .  A
O237        C244   1.278       .  A
O238        C245   1.273       .  A
O239        C245   1.272       .  A
C240        N290   1.441       .  S
C241        C308   1.472       .  S
C242        N297   1.454       .  S
C243        N246   1.449       .  S
C244        N276   1.433       .  S
C245        C287   1.451       .  S
N246        C694   1.373       .  A
N246        C247   1.378       .  A
C247        C330   1.507       .  S
C247        C692   1.391       .  A
C248        C691   1.390   1_455  A
C248        C249   1.354       .  A
C248        H251   1.083       .  S
C249        C250   1.373       .  A
C249        H252   1.083       .  S
C250        C270   1.488       .  S
C250        N690   1.373       .  A
Zn253       O257   1.893       .  S
Zn253       O258   1.992       .  S
Zn253       O262   1.980       .  S
Zn253       O269   1.985       .  S
Zn254       O257   1.927       .  S
Zn254       O259   1.987       .  S
Zn254       O261   2.061       .  S
Zn254       O265   1.996       .  S
Zn255       O257   1.944       .  S
Zn255       O260   2.076       .  S
Zn255       O263   2.042       .  S
Zn255       O266   2.043       .  S
Zn256       O257   1.947       .  S
Zn256       O264   2.015       .  S
Zn256       O267   1.983       .  S
Zn256       O268   1.985       .  S
O258        C270   1.272       .  A
O259        C271   1.276       .  A
O260        C272   1.282       .  A
O261        C270   1.274       .  A
O262        C272   1.274       .  A
O263        C271   1.279       .  A
O264        C273   1.270       .  A
O265        C274   1.272       .  A
O266        C273   1.275       .  A
O267        C274   1.267       .  A
O268        C275   1.270       .  A
O269        C275   1.270       .  A
C271        N304   1.435   1_455  S
C272        N283   1.435   1_565  S
C273        C280   1.476       .  S
C274        C294   1.449       .  S
C275        C301   1.457       .  S
N276        C277   1.368       .  A
C277        C328   1.487       .  S
C278        C279   1.367       .  A
C278        H281   1.083       .  S
C279        C280   1.375       .  A
C279        H282   1.082       .  S
C284        C285   1.384       .  A
C285        C286   1.358       .  A
C285        H288   1.083       .  S
C286        C287   1.375       .  A
C286        H289   1.083       .  S
N290        C294   1.350       .  A
N290        C291   1.355       .  A
C291        C333   1.473       .  S
C291        C292   1.389       .  A
C292        C293   1.365       .  A
C292        H295   1.083       .  S
C293        C294   1.374       .  A
C293        H296   1.083       .  S
N297        C301   1.354       .  A
N297        C298   1.359       .  A
C298        C329   1.494       .  S
C298        C299   1.398       .  A
C299        C300   1.364       .  A
C299        H302   1.084       .  S
C300        C301   1.373       .  A
C300        H303   1.083       .  S
N304        C752   1.357       .  A
N304        C749   1.355       .  A
C305        C776   1.460       .  S
C305        N748   1.355       .  A
C305        C306   1.383       .  A
C306        C307   1.368       .  A
C306        H309   1.082       .  S
C307        C308   1.380       .  A
C307        H310   1.082       .  S
C308        N748   1.357       .  A
Zn311       O537   1.915       .  S
Zn311       O316   2.105       .  S
Zn311       O431   2.010   1_554  S
Zn311       O771   2.027       .  S
Zn312       O759   1.875       .  S
Zn312       O428   1.964   1_554  S
Zn312       O319   1.986       .  S
Zn312       O323   1.993       .  S
Zn313       O426   1.995       .  S
Zn313       O540   2.132   1_565  S
Zn313       O765   2.121       .  S
Zn313       O324   2.075   1_655  S
Zn314       O315   1.953   1_465  S
Zn314       O433   1.940   1_554  S
Zn314       O325   2.031       .  S
O315       Zn533   1.914       .  S
O315       Zn756   1.873   1_545  S
O315       Zn424   1.999   1_544  S
O316        C328   1.279       .  A
O317       Zn423   1.964       .  S
O317        C329   1.272       .  A
O318       Zn535   2.137       .  S
O318        C330   1.286       .  A
O320       Zn422   2.005       .  S
O320        C330   1.278       .  A
O321       Zn757   2.121       .  S
O321        C329   1.290       .  A
O322       Zn425   1.939       .  S
O322        C331   1.266   1_565  A
O323        C776   1.264       .  A
O324        C331   1.279   1_565  A
O325        C332   1.269       .  A
O326        C333   1.273       .  A
O327       Zn755   2.023   1_455  S
O327        C333   1.281       .  A
C332        O767   1.264   1_455  A
C332        C749   1.460   1_455  S
Zn334       O338   1.952       .  S
Zn334       O339   2.030       .  S
Zn334       O343   2.037       .  S
Zn334       O350   1.993       .  S
Zn335       O338   1.946       .  S
Zn335       O340   1.980       .  S
Zn335       O342   2.041       .  S
Zn335       O346   1.982       .  S
Zn336       O338   1.962       .  S
Zn336       O341   2.056       .  S
Zn336       O344   2.026       .  S
Zn336       O347   2.008       .  S
Zn337       O338   2.000       .  S
Zn337       O345   2.074       .  S
Zn337       O348   2.057       .  S
Zn337       O349   2.007       .  S
O339        C351   1.273       .  A
O340        C352   1.270       .  A
O341        C353   1.273       .  A
O342        C351   1.275       .  A
O343        C353   1.280       .  A
O344        C352   1.276       .  A
O345        C354   1.276       .  A
O346        C355   1.269       .  A
O347        C354   1.277       .  A
O348        C355   1.278       .  A
O349        C356   1.273       .  A
O350        C356   1.272       .  A
C351        N401   1.441       .  S
C352        C419   1.472       .  S
C353        N408   1.454       .  S
C354        N357   1.450       .  S
C355        N387   1.433       .  S
C356        C398   1.450       .  S
N357        C805   1.372       .  A
N357        C358   1.378       .  A
C358        C441   1.504       .  S
C358        C803   1.390       .  A
C359        C802   1.391   1_455  A
C359        C360   1.354       .  A
C359        H362   1.083       .  S
C360        C361   1.373       .  A
C360        H363   1.083       .  S
C361        C381   1.489       .  S
C361        N801   1.373       .  A
Zn364       O368   1.894       .  S
Zn364       O369   1.994       .  S
Zn364       O373   1.983       .  S
Zn364       O380   1.987       .  S
Zn365       O368   1.927       .  S
Zn365       O370   1.987       .  S
Zn365       O372   2.062       .  S
Zn365       O376   1.995       .  S
Zn366       O368   1.943       .  S
Zn366       O371   2.073       .  S
Zn366       O374   2.041       .  S
Zn366       O377   2.041       .  S
Zn367       O368   1.947       .  S
Zn367       O375   2.016       .  S
Zn367       O378   1.983       .  S
Zn367       O379   1.983       .  S
O369        C381   1.272       .  A
O370        C382   1.276       .  A
O371        C383   1.282       .  A
O372        C381   1.274       .  A
O373        C383   1.274       .  A
O374        C382   1.279       .  A
O375        C384   1.270       .  A
O376        C385   1.272       .  A
O377        C384   1.275       .  A
O378        C385   1.267       .  A
O379        C386   1.269       .  A
O380        C386   1.271       .  A
C382        N415   1.435   1_455  S
C383        N394   1.435   1_565  S
C384        C391   1.475       .  S
C385        C405   1.449       .  S
C386        C412   1.457       .  S
N387        C388   1.368       .  A
C388        C439   1.487       .  S
C389        C390   1.367       .  A
C389        H392   1.083       .  S
C390        C391   1.375       .  A
C390        H393   1.082       .  S
C395        C396   1.384       .  A
C396        C397   1.358       .  A
C396        H399   1.083       .  S
C397        C398   1.375       .  A
C397        H400   1.083       .  S
N401        C405   1.350       .  A
N401        C402   1.355       .  A
C402        C444   1.473       .  S
C402        C403   1.389       .  A
C403        C404   1.365       .  A
C403        H406   1.083       .  S
C404        C405   1.374       .  A
C404        H407   1.083       .  S
N408        C412   1.354       .  A
N408        C409   1.359       .  A
C409        C440   1.493       .  S
C409        C410   1.398       .  A
C410        C411   1.364       .  A
C410        H413   1.084       .  S
C411        C412   1.373       .  A
C411        H414   1.083       .  S
N415        C863   1.357       .  A
N415        C860   1.355   1_655  A
C416        C887   1.459       .  S
C416        N859   1.355       .  A
C416        C417   1.383       .  A
C417        C418   1.368       .  A
C417        H420   1.082       .  S
C418        C419   1.380       .  A
C418        H421   1.082       .  S
C419        N859   1.356       .  A
Zn422       O648   1.914       .  S
Zn422       O427   2.105       .  S
Zn422       O882   2.023       .  S
Zn423       O870   1.873       .  S
Zn423       O430   1.983       .  S
Zn423       O434   1.991       .  S
Zn424       O651   2.137   1_565  S
Zn424       O876   2.123       .  S
Zn424       O435   2.076   1_655  S
Zn425       O426   1.952   1_455  S
Zn425       O436   2.029       .  S
O426       Zn644   1.915   1_565  S
O426       Zn867   1.872       .  S
O427        C439   1.279       .  A
O428        C440   1.272       .  A
O429       Zn646   2.132       .  S
O429        C441   1.285       .  A
O431        C441   1.278       .  A
O432       Zn868   2.121       .  S
O432        C440   1.290       .  A
O433        C442   1.266   1_565  A
O434        C887   1.263       .  A
O435        C442   1.279   1_565  A
O436        C443   1.269       .  A
O437        C444   1.273       .  A
O438       Zn866   2.025   1_455  S
O438        C444   1.281       .  A
C443        O878   1.264   1_455  A
C443        C860   1.460       .  S
Zn445       O449   1.952       .  S
Zn445       O450   2.030       .  S
Zn445       O454   2.037       .  S
Zn445       O461   1.993       .  S
Zn446       O449   1.946       .  S
Zn446       O451   1.980       .  S
Zn446       O453   2.041       .  S
Zn446       O457   1.982       .  S
Zn447       O449   1.962       .  S
Zn447       O452   2.056       .  S
Zn447       O455   2.026       .  S
Zn447       O458   2.008       .  S
Zn448       O449   2.000       .  S
Zn448       O456   2.074       .  S
Zn448       O459   2.057       .  S
Zn448       O460   2.007       .  S
O450        C462   1.273       .  A
O451        C463   1.270       .  A
O452        C464   1.273       .  A
O453        C462   1.275       .  A
O454        C464   1.280       .  A
O455        C463   1.276       .  A
O456        C465   1.276       .  A
O457        C466   1.269       .  A
O458        C465   1.277       .  A
O459        C466   1.278       .  A
O460        C467   1.273       .  A
O461        C467   1.272       .  A
C462        N512   1.441       .  S
C463        C530   1.472       .  S
C464        N519   1.454       .  S
C465        N468   1.450   1_655  S
C466        N498   1.433   1_545  S
C467        C509   1.450       .  S
N468        C469   1.378   1_455  A
C469        C552   1.504       .  S
C470        C471   1.354       .  A
C470        H473   1.083       .  S
C471        C472   1.373       .  A
C471        H474   1.083       .  S
C472        C492   1.489       .  S
Zn475       O479   1.894       .  S
Zn475       O480   1.994       .  S
Zn475       O484   1.983       .  S
Zn475       O491   1.987       .  S
Zn476       O479   1.927       .  S
Zn476       O481   1.987       .  S
Zn476       O483   2.062       .  S
Zn476       O487   1.995       .  S
Zn477       O479   1.943       .  S
Zn477       O482   2.073       .  S
Zn477       O485   2.041       .  S
Zn477       O488   2.041       .  S
Zn478       O479   1.947       .  S
Zn478       O486   2.016       .  S
Zn478       O489   1.983       .  S
Zn478       O490   1.983       .  S
O480        C492   1.272       .  A
O481        C493   1.276       .  A
O482        C494   1.282       .  A
O483        C492   1.274       .  A
O484        C494   1.274       .  A
O485        C493   1.279       .  A
O486        C495   1.270       .  A
O487        C496   1.272       .  A
O488        C495   1.275       .  A
O489        C496   1.267       .  A
O490        C497   1.269       .  A
O491        C497   1.271       .  A
C493        N526   1.435       .  S
C494        N505   1.435       .  S
C495        C502   1.475       .  S
C496        C516   1.449       .  S
C497        C523   1.457       .  S
N498        C724   1.360       .  A
N498        C499   1.368       .  A
C499        C550   1.487       .  S
C499        C722   1.387       .  A
C500        C721   1.387       .  A
C500        C501   1.367       .  A
C500        H503   1.083       .  S
C501        C502   1.375       .  A
C501        H504   1.082       .  S
C502        N720   1.360       .  A
N505        C731   1.358       .  A
N505        C728   1.358       .  A
C506        C775   1.468       .  S
C506        N727   1.357       .  A
C506        C507   1.384       .  A
C507        C508   1.358       .  A
C507        H510   1.083       .  S
C508        C509   1.375       .  A
C508        H511   1.083       .  S
C509        N727   1.358       .  A
N512        C516   1.350       .  A
N512        C513   1.355       .  A
C513        C555   1.473       .  S
C513        C514   1.389       .  A
C514        C515   1.365       .  A
C514        H517   1.083       .  S
C515        C516   1.374       .  A
C515        H518   1.083       .  S
N519        C523   1.354       .  A
N519        C520   1.359       .  A
C520        C551   1.493       .  S
C520        C521   1.398       .  A
C521        C522   1.364       .  A
C521        H524   1.084       .  S
C522        C523   1.373       .  A
C522        H525   1.083       .  S
C527        C528   1.383       .  A
C528        C529   1.368       .  A
C528        H531   1.082       .  S
C529        C530   1.380       .  A
C529        H532   1.082       .  S
Zn533       O538   2.105       .  S
Zn533       O653   2.005   1_554  S
Zn534       O650   1.964   1_554  S
Zn534       O541   1.983       .  S
Zn534       O545   1.991       .  S
Zn535       O648   1.999       .  S
Zn535       O546   2.076       .  S
Zn536       O537   1.952       .  S
Zn536       O655   1.939   1_554  S
Zn536       O547   2.029       .  S
Zn536       O770   2.018       .  S
O537       Zn646   1.995   1_554  S
O538        C550   1.279   1_545  A
O539       Zn645   1.964       .  S
O539        C551   1.272       .  A
O540        C552   1.285       .  A
O541        C772   1.271       .  A
O542       Zn644   2.010       .  S
O542        C552   1.278       .  A
O543        C551   1.290       .  A
O544       Zn647   1.940       .  S
O544        C553   1.266       .  A
O546        C553   1.279       .  A
O547        C554   1.269       .  A
O548       Zn758   2.019   1_545  S
O548        C555   1.273       .  A
O549        C555   1.281       .  A
C550        O763   1.270       .  A
C553        C728   1.470       .  S
Zn556       O560   1.952       .  S
Zn556       O561   2.029       .  S
Zn556       O565   2.036       .  S
Zn556       O572   1.993       .  S
Zn557       O560   1.946       .  S
Zn557       O562   1.984       .  S
Zn557       O564   2.043       .  S
Zn557       O568   1.985       .  S
Zn558       O560   1.961       .  S
Zn558       O563   2.054       .  S
Zn558       O566   2.023       .  S
Zn558       O569   2.002       .  S
Zn559       O560   2.000       .  S
Zn559       O567   2.070       .  S
Zn559       O570   2.054       .  S
Zn559       O571   2.008       .  S
O561        C573   1.273       .  A
O562        C574   1.271       .  A
O563        C575   1.273       .  A
O564        C573   1.276       .  A
O565        C575   1.280       .  A
O566        C574   1.275       .  A
O567        C576   1.275       .  A
O568        C577   1.270       .  A
O569        C576   1.277       .  A
O570        C577   1.278       .  A
O571        C578   1.273       .  A
O572        C578   1.272       .  A
C573        N623   1.441       .  S
C574        C641   1.472       .  S
C575        N630   1.454       .  S
C576        N579   1.449       .  S
C577        N609   1.433   1_545  S
C578        C620   1.451       .  S
N579        C580   1.378       .  A
C580        C663   1.507       .  S
C581        C582   1.354       .  A
C581        H584   1.083       .  S
C582        C583   1.373       .  A
C582        H585   1.083       .  S
C583        C603   1.488       .  S
Zn586       O590   1.893       .  S
Zn586       O591   1.992       .  S
Zn586       O595   1.981       .  S
Zn586       O602   1.985       .  S
Zn587       O590   1.927       .  S
Zn587       O592   1.987       .  S
Zn587       O594   2.061       .  S
Zn587       O598   1.996       .  S
Zn588       O590   1.944       .  S
Zn588       O593   2.076       .  S
Zn588       O596   2.042       .  S
Zn588       O599   2.043       .  S
Zn589       O590   1.947       .  S
Zn589       O597   2.015       .  S
Zn589       O600   1.983       .  S
Zn589       O601   1.985       .  S
O591        C603   1.272       .  A
O592        C604   1.276       .  A
O593        C605   1.282       .  A
O594        C603   1.274       .  A
O595        C605   1.274       .  A
O596        C604   1.279       .  A
O597        C606   1.270       .  A
O598        C607   1.272       .  A
O599        C606   1.275       .  A
O600        C607   1.267       .  A
O601        C608   1.270       .  A
O602        C608   1.270       .  A
C604        N637   1.435       .  S
C605        N616   1.436       .  S
C606        C613   1.476       .  S
C607        C627   1.449       .  S
C608        C634   1.457       .  S
N609        C835   1.360       .  A
N609        C610   1.368       .  A
C610        C661   1.487       .  S
C610        C833   1.387       .  A
C611        C832   1.387       .  A
C611        C612   1.367       .  A
C611        H614   1.083       .  S
C612        C613   1.375       .  A
C612        H615   1.082       .  S
C613        N831   1.360       .  A
N616        C842   1.358       .  A
N616        C839   1.358       .  A
C617        C886   1.469       .  S
C617        N838   1.358       .  A
C617        C618   1.384       .  A
C618        C619   1.358       .  A
C618        H621   1.083       .  S
C619        C620   1.375       .  A
C619        H622   1.083       .  S
C620        N838   1.358       .  A
N623        C627   1.350       .  A
N623        C624   1.355       .  A
C624        C666   1.473       .  S
C624        C625   1.389       .  A
C625        C626   1.365       .  A
C625        H628   1.083       .  S
C626        C627   1.374       .  A
C626        H629   1.083       .  S
N630        C634   1.354       .  A
N630        C631   1.359       .  A
C631        C662   1.494       .  S
C631        C632   1.398       .  A
C632        C633   1.364       .  A
C632        H635   1.084       .  S
C633        C634   1.373       .  A
C633        H636   1.083       .  S
C638        C639   1.383   1_455  A
C639        C640   1.368       .  A
C639        H642   1.082       .  S
C640        C641   1.380       .  A
C640        H643   1.082       .  S
Zn644       O649   2.105       .  S
Zn645       O652   1.986       .  S
Zn645       O656   1.993       .  S
Zn646       O657   2.075       .  S
Zn647       O648   1.953       .  S
Zn647       O658   2.031       .  S
Zn647       O881   2.019       .  S
O649        C661   1.279   1_545  A
O650        C662   1.272       .  A
O651        C663   1.286       .  A
O652        C883   1.271       .  A
O653        C663   1.278       .  A
O654        C662   1.290       .  A
O655        C664   1.266       .  A
O657        C664   1.279       .  A
O658        C665   1.269       .  A
O659       Zn869   2.020   1_545  S
O659        C666   1.273       .  A
O660        C666   1.281       .  A
C661        O874   1.271       .  A
C664        C839   1.470       .  S
Zn667       O671   1.954       .  S
Zn667       O672   2.034       .  S
Zn667       O676   2.036       .  S
Zn667       O683   1.995       .  S
Zn668       O671   1.947       .  S
Zn668       O673   1.983       .  S
Zn668       O675   2.044       .  S
Zn668       O679   1.984       .  S
Zn669       O671   1.963       .  S
Zn669       O674   2.055       .  S
Zn669       O677   2.027       .  S
Zn669       O680   2.009       .  S
Zn670       O671   2.001       .  S
Zn670       O678   2.075       .  S
Zn670       O681   2.056       .  S
Zn670       O682   2.012       .  S
O672        C684   1.273       .  A
O673        C685   1.271       .  A
O674        C686   1.273       .  A
O675        C684   1.275       .  A
O676        C686   1.280       .  A
O677        C685   1.276       .  A
O678        C687   1.276       .  A
O679        C688   1.270       .  A
O680        C687   1.278       .  A
O681        C688   1.278       .  A
O682        C689   1.273       .  A
O683        C689   1.272       .  A
C684        N734   1.442       .  S
C685        C752   1.472       .  S
C686        N741   1.454       .  S
C687        N690   1.451   1_655  S
C688        N720   1.433       .  S
C689        C731   1.452       .  S
N690        C691   1.379   1_455  A
C691        C774   1.507       .  S
C692        C693   1.354       .  A
C692        H695   1.083       .  S
C693        C694   1.374       .  A
C693        H696   1.083       .  S
C694        C714   1.489       .  S
Zn697       O701   1.891       .  S
Zn697       O702   1.994       .  S
Zn697       O706   1.981       .  S
Zn697       O713   1.987       .  S
Zn698       O701   1.927       .  S
Zn698       O703   1.987       .  S
Zn698       O705   2.064       .  S
Zn698       O709   1.996       .  S
Zn699       O701   1.941       .  S
Zn699       O704   2.074       .  S
Zn699       O707   2.040       .  S
Zn699       O710   2.041       .  S
Zn700       O701   1.946       .  S
Zn700       O708   2.015       .  S
Zn700       O711   1.980       .  S
Zn700       O712   1.981       .  S
O702        C714   1.272       .  A
O703        C715   1.276       .  A
O704        C716   1.282       .  A
O705        C714   1.275       .  A
O706        C716   1.274       .  A
O707        C715   1.279       .  A
O708        C717   1.270       .  A
O709        C718   1.272       .  A
O710        C717   1.275       .  A
O711        C718   1.267       .  A
O712        C719   1.269       .  A
O713        C719   1.271       .  A
C715        N748   1.435       .  S
C716        N727   1.435   1_565  S
C717        C724   1.475       .  S
C718        C738   1.448       .  S
C719        C745   1.457       .  S
N720        C721   1.368       .  A
C721        C772   1.488       .  S
C722        C723   1.366       .  A
C722        H725   1.083       .  S
C723        C724   1.375       .  A
C723        H726   1.082       .  S
C728        C729   1.384       .  A
C729        C730   1.358       .  A
C729        H732   1.083       .  S
C730        C731   1.375       .  A
C730        H733   1.083       .  S
N734        C738   1.349       .  A
N734        C735   1.355       .  A
C735        C777   1.473       .  S
C735        C736   1.389       .  A
C736        C737   1.365       .  A
C736        H739   1.083       .  S
C737        C738   1.374       .  A
C737        H740   1.083       .  S
N741        C745   1.354       .  A
N741        C742   1.359       .  A
C742        C773   1.493       .  S
C742        C743   1.398       .  A
C743        C744   1.363       .  A
C743        H746   1.084       .  S
C744        C745   1.373       .  A
C744        H747   1.083       .  S
C749        C750   1.383       .  A
C750        C751   1.368       .  A
C750        H753   1.082       .  S
C751        C752   1.380       .  A
C751        H754   1.082       .  S
Zn755       O760   2.106       .  S
Zn755       O875   2.008   1_554  S
Zn756       O872   1.963   1_554  S
Zn756       O763   1.981       .  S
Zn756       O767   1.992       .  S
Zn757       O870   1.997       .  S
Zn757       O768   2.073       .  S
Zn758       O759   1.955       .  S
Zn758       O877   1.939   1_554  S
Zn758       O769   2.029       .  S
O759       Zn868   1.998   1_554  S
O760        C772   1.279       .  A
O761       Zn867   1.966       .  S
O761        C773   1.272       .  A
O762        C774   1.285       .  A
O764       Zn866   2.007       .  S
O764        C774   1.278       .  A
O765        C773   1.290       .  A
O766       Zn869   1.937       .  S
O766        C775   1.265   1_565  A
O768        C775   1.279   1_565  A
O769        C776   1.269       .  A
O770        C777   1.273       .  A
O771        C777   1.281       .  A
Zn778       O782   1.953       .  S
Zn778       O783   2.032       .  S
Zn778       O787   2.034       .  S
Zn778       O794   1.995       .  S
Zn779       O782   1.946       .  S
Zn779       O784   1.983       .  S
Zn779       O786   2.043       .  S
Zn779       O790   1.984       .  S
Zn780       O782   1.963       .  S
Zn780       O785   2.054       .  S
Zn780       O788   2.024       .  S
Zn780       O791   2.008       .  S
Zn781       O782   2.000       .  S
Zn781       O789   2.074       .  S
Zn781       O792   2.054       .  S
Zn781       O793   2.009       .  S
O783        C795   1.273       .  A
O784        C796   1.271       .  A
O785        C797   1.273       .  A
O786        C795   1.275       .  A
O787        C797   1.280       .  A
O788        C796   1.275       .  A
O789        C798   1.275       .  A
O790        C799   1.270       .  A
O791        C798   1.277       .  A
O792        C799   1.278       .  A
O793        C800   1.273       .  A
O794        C800   1.272       .  A
C795        N845   1.441       .  S
C796        C863   1.472       .  S
C797        N852   1.454       .  S
C798        N801   1.451   1_655  S
C799        N831   1.433       .  S
C800        C842   1.452       .  S
N801        C802   1.380   1_455  A
C802        C885   1.508       .  S
C803        C804   1.354       .  A
C803        H806   1.083       .  S
C804        C805   1.374       .  A
C804        H807   1.083       .  S
C805        C825   1.487       .  S
Zn808       O812   1.892       .  S
Zn808       O813   1.993       .  S
Zn808       O817   1.980       .  S
Zn808       O824   1.988       .  S
Zn809       O812   1.925       .  S
Zn809       O814   1.984       .  S
Zn809       O816   2.059       .  S
Zn809       O820   1.994       .  S
Zn810       O812   1.941       .  S
Zn810       O815   2.074       .  S
Zn810       O818   2.040       .  S
Zn810       O821   2.044       .  S
Zn811       O812   1.945       .  S
Zn811       O819   2.014       .  S
Zn811       O822   1.981       .  S
Zn811       O823   1.981       .  S
O813        C825   1.272       .  A
O814        C826   1.275       .  A
O815        C827   1.282       .  A
O816        C825   1.274       .  A
O817        C827   1.274       .  A
O818        C826   1.279       .  A
O819        C828   1.270       .  A
O820        C829   1.272       .  A
O821        C828   1.275       .  A
O822        C829   1.267       .  A
O823        C830   1.269       .  A
O824        C830   1.271       .  A
C826        N859   1.435       .  S
C827        N838   1.435   1_565  S
C828        C835   1.476       .  S
C829        C849   1.448       .  S
C830        C856   1.457       .  S
N831        C832   1.368       .  A
C832        C883   1.488       .  S
C833        C834   1.367       .  A
C833        H836   1.083       .  S
C834        C835   1.375       .  A
C834        H837   1.082       .  S
C839        C840   1.384       .  A
C840        C841   1.358       .  A
C840        H843   1.083       .  S
C841        C842   1.375       .  A
C841        H844   1.083       .  S
N845        C849   1.349       .  A
N845        C846   1.355       .  A
C846        C888   1.473       .  S
C846        C847   1.389       .  A
C847        C848   1.365       .  A
C847        H850   1.083       .  S
C848        C849   1.374       .  A
C848        H851   1.083       .  S
N852        C856   1.354       .  A
N852        C853   1.359       .  A
C853        C884   1.494       .  S
C853        C854   1.398       .  A
C854        C855   1.364       .  A
C854        H857   1.084       .  S
C855        C856   1.373       .  A
C855        H858   1.083       .  S
C860        C861   1.383   1_455  A
C861        C862   1.368       .  A
C861        H864   1.082       .  S
C862        C863   1.380       .  A
C862        H865   1.082       .  S
Zn866       O871   2.106       .  S
Zn867       O874   1.983       .  S
Zn867       O878   1.993       .  S
Zn868       O879   2.074       .  S
Zn869       O870   1.955       .  S
Zn869       O880   2.029       .  S
O871        C883   1.279       .  A
O872        C884   1.272       .  A
O873        C885   1.285       .  A
O875        C885   1.278       .  A
O876        C884   1.290       .  A
O877        C886   1.265   1_565  A
O879        C886   1.279   1_565  A
O880        C887   1.269       .  A
O881        C888   1.273       .  A
O882        C888   1.280       .  A
