geometry optimzed in LAMMPS
_audit_creation_date              2020-11-30 
_audit_creation_method            'lammps2cif' 
_symmetry_space_group_name_H-M    'P1' 
_symmetry_Int_Tables_number       1 
_symmetry_cell_setting            triclinic 
loop_ 
_symmetry_equiv_pos_as_xyz 
  x,y,z 
_cell_length_a                    46.40160305 
_cell_length_b                    45.5593982767375 
_cell_length_c                    29.77519572569411 
_cell_angle_alpha                 89.96506032269627 
_cell_angle_beta                  89.9866064417695 
_cell_angle_gamma                 121.05475218513496 
loop_ 
_atom_site_label 
_atom_site_type_symbol 
_atom_site_fract_x 
_atom_site_fract_y 
_atom_site_fract_z 
_atom_site_charge 
O1          O  0.32075001  0.11593920  0.43966990    -0.84800
O2          O  0.38775963  0.15656162  0.46340029    -0.81900
C3          C  0.39941220  0.18213901  0.43734451     0.98600
O4          O  0.39079766  0.20407507  0.44208987    -0.81900
O5          O  0.35076034  0.23045131  0.46298725    -0.84500
C6          C  0.32642104  0.21641392  0.43564206     1.03200
O7          O  0.30427067  0.18507636  0.43981394    -0.77300
O8          O  0.27634480  0.11670934  0.46264774    -0.77500
C9          C  0.28995380  0.10593407  0.43583323     1.03100
O10         O  0.30282205  0.10090678  0.53345619    -0.84800
O11         O  0.36841537  0.14636475  0.55587524    -0.81900
C12         C  0.39514282  0.17474858  0.56200470     0.98700
O13         O  0.40262435  0.19997571  0.53654644    -0.81900
O14         O  0.35813042  0.22088311  0.55653281    -0.84500
C15         C  0.33044458  0.21959858  0.56069710     1.03100
O16         O  0.30661278  0.20199204  0.53364754    -0.77300
O17         O  0.28557333  0.13520603  0.55545885    -0.77500
C18         C  0.28616392  0.10799373  0.56043297     1.03100
Cr19       Cr  0.34439917  0.13273837  0.49798965     1.93700
Cr20       Cr  0.37284971  0.21045734  0.49941510     1.93200
Cr21       Cr  0.29648882  0.16036726  0.49783427     1.39100
O22         O  0.33797198  0.16789607  0.49848595    -1.22600
N23         N  0.11240250  0.11192581  0.06820075    -0.36100
N24         N  0.14587058  0.09013298  0.00450370    -0.56600
N25         N  0.11504245  0.10638248  0.93139397    -0.36100
N26         N  0.08201690  0.12885336  0.99500329    -0.56600
C27         C  0.12956620  0.10385743  0.09747911     0.27500
C28         C  0.09693913  0.12507966  0.09236378     0.27500
C29         C  0.12548607  0.08715795  0.90994414     0.27500
C30         C  0.09209441  0.10764746  0.90443025     0.27500
C31         C  0.15929630  0.08648399  0.04288700     0.36100
C32         C  0.16164099  0.08485890  0.96998719     0.36100
C33         C  0.07015629  0.13915314  0.02926638     0.36100
C34         C  0.07122219  0.13574209  0.95652765     0.36100
C35         C  0.12518502  0.11224548  0.14069075    -0.21400
C36         C  0.10475511  0.12564120  0.13749503    -0.21400
C37         C  0.10837968  0.07563261  0.86953697    -0.21400
C38         C  0.08822102  0.08931251  0.86548409    -0.21400
C39         C  0.18402333  0.07907991  0.03258898    -0.22400
C40         C  0.18628594  0.07923765  0.98663807    -0.22400
C41         C  0.05147653  0.15255439  0.01241828    -0.22400
C42         C  0.05235811  0.15064233  0.96638411    -0.22400
C43         C  0.14909013  0.08898026  0.08699026    -0.17800
C44         C  0.07567949  0.13642588  0.07553870    -0.17800
C45         C  0.07542949  0.12591425  0.91298376    -0.17800
C46         C  0.15136785  0.08122394  0.92435649    -0.17800
H47         H  0.13588659  0.10933114  0.17145957     0.15100
H48         H  0.09673880  0.13489586  0.16545495     0.15100
H49         H  0.11046816  0.05936584  0.84491573     0.15100
H50         H  0.07246249  0.08585040  0.83687384     0.15100
H51         H  0.19925599  0.07427841  0.05535370     0.13400
H52         H  0.20359983  0.07470630  0.96794260     0.13400
H53         H  0.03842791  0.16252497  0.03125608     0.13400
H54         H  0.03962614  0.15833711  0.94297328     0.13400
H55         H  0.10954464  0.10646078  0.03428526     0.26700
H56         H  0.12576120  0.12108006  0.96006696     0.26700
N57         N  0.36992057  0.49710226  0.93041002    -0.36100
N58         N  0.39485369  0.04940969  0.99898844    -0.56600
N59         N  0.36894601  0.49820970  0.06729646    -0.36100
N60         N  0.34429375  0.44562395  0.99881407    -0.56600
C61         C  0.39489043  0.02502112  0.90947436     0.27500
C62         C  0.36609453  0.46916711  0.90891341     0.27500
C63         C  0.39300346  0.02654808  0.08853844     0.27500
C64         C  0.36676667  0.47083461  0.08820857     0.27500
C65         C  0.39760975  0.06770292  0.96205154     0.36100
C66         C  0.39588189  0.06815046  0.03460324     0.36100
C67         C  0.32733540  0.42660800  0.96279194     0.36100
C68         C  0.32802052  0.42714680  0.03552389     0.36100
C69         C  0.40769834  0.01473320  0.87480141    -0.21400
C70         C  0.38949275  0.47938552  0.87448518    -0.21400
C71         C  0.40714043  0.01717199  0.12247792    -0.21400
C72         C  0.39052476  0.48185480  0.12224993    -0.21400
C73         C  0.39888791  0.09776041  0.97393509    -0.22400
C74         C  0.39769599  0.09801355  0.02021366    -0.22400
C75         C  0.29915381  0.39628800  0.97666806    -0.22400
C76         C  0.29972009  0.39653990  0.02296939    -0.22400
C77         C  0.40406162  0.05919047  0.91929958    -0.17800
C78         C  0.34039651  0.43508980  0.91870167    -0.17800
C79         C  0.34161835  0.43651079  0.07912887    -0.17800
C80         C  0.40056562  0.06018600  0.07876493    -0.17800
H81         H  0.42784910  0.03095727  0.85190207     0.15100
H82         H  0.39293449  0.46312850  0.85137113     0.15100
H83         H  0.42709081  0.03397136  0.14522371     0.15100
H84         H  0.39502143  0.46608198  0.14496883     0.15100
H85         H  0.40190424  0.11798754  0.95175241     0.13400
H86         H  0.39955290  0.11848168  0.04080889     0.13400
H87         H  0.28080897  0.37566223  0.95576281     0.13400
H88         H  0.28195852  0.37618026  0.04476091     0.13400
H89         H  0.35378413  0.49713445  0.95481492     0.26700
H90         H  0.35222316  0.49743030  0.04318721     0.26700
N91         N  0.50606721  0.39484721  0.06610983    -0.36100
N92         N  0.45136626  0.37256222  0.00071081    -0.56600
N93         N  0.49922217  0.38523973  0.92931807    -0.36100
N94         N  0.05411883  0.40973465  0.99468959    -0.56600
C95         C  0.48179534  0.39472611  0.09161431     0.27500
C96         C  0.03572065  0.41420654  0.08792270     0.27500
C97         C  0.47125281  0.37452165  0.90407242     0.27500
C98         C  0.02552202  0.39610751  0.90079057     0.27500
C99         C  0.43316495  0.36627562  0.03869749     0.36100
C100        C  0.42936901  0.36092932  0.96604223     0.36100
C101        C  0.07435942  0.41438423  0.02999191     0.36100
C102        C  0.07146902  0.41195108  0.95710804     0.36100
C103        C  0.49619628  0.41406476  0.13000411    -0.21400
C104        C  0.03015897  0.42699617  0.12711545    -0.21400
C105        C  0.47985947  0.37730342  0.85891831    -0.21400
C106        C  0.01393161  0.39107085  0.85688678    -0.21400
C107        C  0.39931705  0.35114402  0.02809751    -0.22400
C108        C  0.39694639  0.34795826  0.98209864    -0.22400
C109        C  0.10444810  0.41848126  0.01472946    -0.22400
C110        C  0.10304482  0.41805337  0.96867760    -0.22400
C111        C  0.44680482  0.37610787  0.08248086    -0.17800
C112        C  0.06736910  0.41897715  0.07496640    -0.17800
C113        C  0.05980759  0.41023213  0.91261614    -0.17800
C114        C  0.43812317  0.36251355  0.92003763    -0.17800
H115        H  0.48384991  0.41877924  0.15740370     0.15100
H116        H  0.04859327  0.44359986  0.15165565     0.15100
H117        H  0.46343526  0.37025956  0.83006376     0.15100
H118        H  0.02844262  0.39638327  0.82632240     0.15100
H119        H  0.37856585  0.34391679  0.05097826     0.13400
H120        H  0.37397207  0.33741242  0.96275378     0.13400
H121        H  0.12575496  0.42246552  0.03442317     0.13400
H122        H  0.12313579  0.42168173  0.94666490     0.13400
H123        H  0.50195840  0.37905663  0.03866470     0.26700
H124        H  0.50038612  0.38515487  0.96386108     0.26700
C125        C  0.01817071  0.19665232  0.29178889     0.02800
C126        C  0.48328770  0.18454448  0.29188330     0.02800
C127        C  0.46373706  0.16651939  0.25442428    -0.17700
C128        C  0.47763154  0.15892864  0.21746744     0.02800
C129        C  0.01248356  0.17024068  0.21800122     0.02800
C130        C  0.03227254  0.18946442  0.25469350    -0.17700
H131        H  0.05891629  0.19834652  0.25480058     0.04800
H132        H  0.43703769  0.15736006  0.25471110     0.04800
C133        C  0.32263662  0.30277849  0.29564551     0.02800
C134        C  0.30109882  0.31606455  0.29555886     0.02800
C135        C  0.30078315  0.33461369  0.25821910    -0.17700
C136        C  0.32358177  0.34307639  0.22267188     0.02800
C137        C  0.34826093  0.33351660  0.22548702     0.02800
C138        C  0.34627468  0.31199506  0.26087973    -0.17700
H139        H  0.36416112  0.30345871  0.26246474     0.04800
H140        H  0.28312227  0.34347348  0.25763525     0.04800
C141        C  0.48255043  0.18162424  0.70495644     0.02800
C142        C  0.01716092  0.19367036  0.70122336     0.02800
C143        C  0.03287194  0.18479587  0.73446134    -0.17700
C144        C  0.01483049  0.16456321  0.77183162     0.02800
C145        C  0.48042213  0.15454984  0.77682602     0.02800
C146        C  0.46515982  0.16384032  0.74358727    -0.17700
H147        H  0.43875497  0.15562243  0.74659354     0.04800
H148        H  0.05916099  0.19288577  0.73037398     0.04800
C149        C  0.31766553  0.29804633  0.70465424     0.02800
C150        C  0.29464782  0.30968077  0.70581655     0.02800
C151        C  0.29403875  0.32797044  0.74344430    -0.17700
C152        C  0.31638766  0.33595588  0.77949313     0.02800
C153        C  0.33977264  0.32470148  0.77802613     0.02800
C154        C  0.33936544  0.30510552  0.74139524    -0.17700
H155        H  0.35702839  0.29625193  0.74078988     0.04800
H156        H  0.27679823  0.33735001  0.74382232     0.04800
C157        C  0.18833976  0.48169380  0.70417322     0.02800
C158        C  0.20848566  0.01774995  0.70721808     0.02800
C159        C  0.20767840  0.03414664  0.74688758    -0.17700
C160        C  0.18474148  0.01619067  0.78185122     0.02800
C161        C  0.16214642  0.48022832  0.77640521     0.02800
C162        C  0.16525681  0.46355012  0.73857705    -0.17700
H163        H  0.14830036  0.43619280  0.73460591     0.04800
H164        H  0.22452211  0.06160131  0.74968572     0.04800
C165        C  0.19050744  0.48094194  0.28995683     0.02800
C166        C  0.20769490  0.01706245  0.29252970     0.02800
C167        C  0.20250468  0.03554370  0.25915527    -0.17700
C168        C  0.18112932  0.01913251  0.22253612     0.02800
C169        C  0.16632094  0.48304616  0.21733177     0.02800
C170        C  0.17128775  0.46466973  0.25146422    -0.17700
H171        H  0.15930238  0.43707973  0.24882100     0.04800
H172        H  0.21390503  0.06299411  0.26320225     0.04800
O173        O  0.11556392  0.31105311  0.55485704    -0.84800
O174        O  0.15631266  0.37998617  0.53345756    -0.81900
C175        C  0.18097238  0.39195899  0.56031342     0.98600
O176        O  0.20246630  0.38296706  0.55679724    -0.81900
O177        O  0.22924203  0.34248872  0.53607846    -0.84500
C178        C  0.21513745  0.31648550  0.56146342     1.03200
O179        O  0.18436074  0.29437720  0.55659917    -0.77300
O180        O  0.11770514  0.26639013  0.53282460    -0.77500
C181        C  0.10632361  0.27981597  0.55917044     1.03100
O182        O  0.10345993  0.29457856  0.46052644    -0.84800
O183        O  0.14899361  0.36184962  0.44019375    -0.81900
C184        C  0.17677886  0.38947171  0.43553315     0.98700
O185        O  0.20086057  0.39670959  0.46215627    -0.81900
O186        O  0.22186114  0.35156866  0.44283233    -0.84500
C187        C  0.22118520  0.32368072  0.43844508     1.03100
O188        O  0.20255583  0.29840404  0.46349115    -0.77300
O189        O  0.13696505  0.27631178  0.44024671    -0.77500
C190        C  0.11025435  0.27679127  0.43485075     1.03100
Cr191      Cr  0.13387991  0.33632491  0.49744476     1.93700
Cr192      Cr  0.21016646  0.36553554  0.49949013     1.93200
Cr193      Cr  0.16102740  0.28739926  0.49833693     1.39100
O194        O  0.16838656  0.32976258  0.49838904    -1.22600
C195        C  0.18843172  0.45903116  0.32848160    -0.04900
C196        C  0.15654812  0.43578657  0.34611249    -0.32400
C197        C  0.15257837  0.41348662  0.38102844     0.36900
C198        C  0.18083329  0.41387798  0.39930992    -0.05300
C199        C  0.21296486  0.43767172  0.38229375    -0.32300
C200        C  0.21684460  0.45986225  0.34683943     0.36800
H201        H  0.13443088  0.43491291  0.33259104     0.17200
O202        O  0.12080911  0.39147554  0.39708698    -0.59800
H203        H  0.23505904  0.43846031  0.39569093     0.17200
O204        O  0.24834121  0.48159933  0.32983340    -0.59900
H205        H  0.25014294  0.46982741  0.30292509     0.44200
H206        H  0.11800058  0.40360939  0.42280510     0.44100
C207        C  0.18467434  0.41697947  0.59559864    -0.04900
C208        C  0.20307201  0.42063372  0.63487932    -0.32400
C209        C  0.20530772  0.44255465  0.66960484     0.36900
C210        C  0.18959366  0.46185317  0.66532208    -0.05300
C211        C  0.17213012  0.45920646  0.62568943    -0.32300
C212        C  0.16938659  0.43687699  0.59114310     0.36800
H213        H  0.21494740  0.40566718  0.63932957     0.17200
O214        O  0.22196935  0.44409272  0.70838842    -0.59800
H215        H  0.15977592  0.47378356  0.62206462     0.17200
O216        O  0.15209496  0.43511749  0.55289474    -0.59900
H217        H  0.12805835  0.41913465  0.56023701     0.44200
H218        H  0.24552277  0.46287854  0.70347781     0.44100
C219        C  0.27358991  0.30695802  0.66667301    -0.04900
C220        C  0.28922352  0.32434265  0.62685309    -0.32400
C221        C  0.27041567  0.32692185  0.59197175     0.36900
C222        C  0.23523910  0.31192059  0.59650993    -0.05300
C223        C  0.21943768  0.29304900  0.63551571    -0.32300
C224        C  0.23839379  0.29091388  0.67066560     0.36800
H225        H  0.31631710  0.33709395  0.62348941     0.17200
O226        O  0.28684177  0.34472098  0.55393701    -0.59800
H227        H  0.19245766  0.28100193  0.63955921     0.17200
O228        O  0.22239850  0.27325406  0.70898451    -0.59900
H229        H  0.21689907  0.28853055  0.72579859     0.44200
H230        H  0.28501074  0.32713899  0.53257865     0.44100
C231        C  0.03745486  0.21519988  0.66289770    -0.04900
C232        C  0.05089330  0.25070913  0.66417061    -0.32400
C233        C  0.07266414  0.27209977  0.63026755     0.36900
C234        C  0.08159926  0.25801495  0.59442200    -0.05300
C235        C  0.06720026  0.22216934  0.59287143    -0.32300
C236        C  0.04530261  0.20090630  0.62660914     0.36800
H237        H  0.04507266  0.26196753  0.69216484     0.17200
O238        O  0.08622259  0.30680147  0.63376688    -0.59800
H239        H  0.07319962  0.21046915  0.56562279     0.17200
O240        O  0.03243135  0.16625126  0.62448825    -0.59900
H241        H  0.01002778  0.15668243  0.61024490     0.44200
H242        H  0.06930539  0.31120539  0.62014419     0.44100
C243        C  0.28221750  0.31580516  0.33578382    -0.04900
C244        C  0.29283460  0.34714281  0.35723811    -0.32400
C245        C  0.27353112  0.34983701  0.39113304     0.36900
C246        C  0.24292505  0.32076997  0.40442807    -0.05300
C247        C  0.23306508  0.28891916  0.38442309    -0.32300
C248        C  0.25235317  0.28639323  0.34992772     0.36800
H249        H  0.31595146  0.36992000  0.34678823     0.17200
O250        O  0.28519321  0.38091303  0.41168111    -0.59800
H251        H  0.20975024  0.26620284  0.39437941     0.17200
O252        O  0.24130640  0.25544006  0.32941526    -0.59900
H253        H  0.22808825  0.25524609  0.30313215     0.44200
H254        H  0.27933174  0.39413135  0.39101456     0.44100
C255        C  0.04062043  0.21676484  0.32969407    -0.04900
C256        C  0.05906155  0.20463573  0.35213953    -0.32400
C257        C  0.08151787  0.22373276  0.38663845     0.36900
C258        C  0.08617188  0.25578325  0.39901867    -0.05300
C259        C  0.06736906  0.26769451  0.37694341    -0.32300
C260        C  0.04506871  0.24866033  0.34221156     0.36800
H261        H  0.05587543  0.18011888  0.34295596     0.17200
O262        O  0.09843294  0.21057667  0.40842978    -0.59800
H263        H  0.07062885  0.29228729  0.38585299     0.17200
O264        O  0.02838142  0.26185695  0.31995333    -0.59900
H265        H  0.04291931  0.27448724  0.29396968     0.44200
H266        H  0.08446423  0.19854422  0.43509977     0.44100
C267        C  0.36593335  0.33441748  0.81320531    -0.04900
C268        C  0.36609353  0.30886752  0.83951194    -0.32400
C269        C  0.38865751  0.31765322  0.87540498     0.36900
C270        C  0.41144363  0.35234610  0.88538917    -0.05300
C271        C  0.41180022  0.37781238  0.85843829    -0.32300
C272        C  0.38971095  0.36908473  0.82206826     0.36800
H273        H  0.34808852  0.28209786  0.83286202     0.17200
O274        O  0.38817541  0.29222880  0.90066637    -0.59800
H275        H  0.43013766  0.40455258  0.86475511     0.17200
O276        O  0.39231269  0.39434003  0.79411608    -0.59900
H277        H  0.38879116  0.40997043  0.81338169     0.44200
H278        H  0.40588828  0.28883517  0.88753178     0.44100
C279        C  0.08502345  0.42667276  0.87592353    -0.04900
C280        C  0.10430965  0.41285816  0.86134832    -0.32400
C281        C  0.12903605  0.42955236  0.82820095     0.36900
C282        C  0.13372274  0.45974937  0.80791038    -0.05300
C283        C  0.11213487  0.47155369  0.81968153    -0.32300
C284        C  0.08899205  0.45615974  0.85458666     0.36800
H285        H  0.10095848  0.38975226  0.87676237     0.17200
O286        O  0.15011604  0.41768612  0.81829495    -0.59800
H287        H  0.11462058  0.99407500  0.80355419     0.17200
O288        O  0.07040641  0.47022942  0.86793423    -0.59900
H289        H  0.08412008  0.98714575  0.89144564     0.44200
H290        H  0.13645370  0.39675035  0.80005516     0.44100
C291        C  0.09489572  0.43229844  0.10958200    -0.04900
C292        C  0.12628779  0.46191574  0.10105335    -0.32400
C293        C  0.15124895  0.47598648  0.13415283     0.36900
C294        C  0.14365745  0.46360166  0.17868104    -0.05300
C295        C  0.11293444  0.43302321  0.18672670    -0.32300
C296        C  0.08927451  0.41673103  0.15226571     0.36800
H297        H  0.13154738  0.47443420  0.06862633     0.17200
O298        O  0.18254753  0.00273209  0.12295027    -0.59800
H299        H  0.10664475  0.42207377  0.22013247     0.17200
O300        O  0.06047225  0.38580359  0.16056059    -0.59900
H301        H  0.04842504  0.39006395  0.18482818     0.44200
H302        H  0.19594115  0.99203089  0.11573167     0.44100
C303        C  0.42307565  0.36598711  0.12103848    -0.04900
C304        C  0.41830361  0.39024887  0.14337227    -0.32400
C305        C  0.39621006  0.38057061  0.17992396     0.36900
C306        C  0.37622830  0.34564527  0.19216823    -0.05300
C307        C  0.38186925  0.32166091  0.17057421    -0.32300
C308        C  0.40530984  0.33169415  0.13565394     0.36800
H309        H  0.43213104  0.41682603  0.13284450     0.17200
O310        O  0.39394851  0.40535341  0.20298091    -0.59800
H311        H  0.36735387  0.29485294  0.17991444     0.17200
O312        O  0.41080282  0.30781550  0.11589662    -0.59900
H313        H  0.39285444  0.29636352  0.09299341     0.44200
H314        H  0.41101476  0.41286951  0.22714733     0.44100
C315        C  0.41723941  0.08773116  0.11353533    -0.04900
C316        C  0.44570325  0.11953248  0.10229882    -0.32400
C317        C  0.46316232  0.14454708  0.13503821     0.36900
C318        C  0.45474190  0.13679106  0.18075973    -0.05300
C319        C  0.42509515  0.10599308  0.19177096    -0.32300
C320        C  0.40594403  0.08197014  0.15849730     0.36800
H321        H  0.45493341  0.12496355  0.06809195     0.17200
O322        O  0.98912539  0.17608239  0.12204157    -0.59800
H323        H  0.41729185  0.09988560  0.22650022     0.17200
O324        O  0.37617667  0.05296290  0.17004142    -0.59900
H325        H  0.38213536  0.04032944  0.19161680     0.44200
H326        H  0.97936800  0.19097119  0.12097171     0.44100
C327        C  0.42201513  0.08631880  0.88457902    -0.04900
C328        C  0.40952724  0.08003285  0.84054480    -0.32400
C329        C  0.42818369  0.10204346  0.80554546     0.36900
C330        C  0.45898790  0.13247434  0.81448041    -0.05300
C331        C  0.47010067  0.14034515  0.85917211    -0.32300
C332        C  0.45256157  0.11699259  0.89388201     0.36800
H333        H  0.38601971  0.05675996  0.83278698     0.17200
O334        O  0.41682425  0.09256233  0.76240482    -0.59800
H335        H  0.99357502  0.16366828  0.86680681     0.17200
O336        O  0.46682136  0.12295656  0.93581118    -0.59900
H337        H  0.96770773  0.14391364  0.94697215     0.44200
H338        H  0.42806602  0.08045282  0.75124781     0.44100
C339        C  0.32966204  0.40774174  0.88360248    -0.04900
C340        C  0.32573319  0.37585005  0.89471208    -0.32400
C341        C  0.31761706  0.35067593  0.86186949     0.36900
C342        C  0.31675527  0.35846124  0.81627148    -0.05300
C343        C  0.31883775  0.38951988  0.80533199    -0.32300
C344        C  0.32410790  0.41347074  0.83862912     0.36800
H345        H  0.32931618  0.37038173  0.92895276     0.17200
O346        O  0.30975794  0.31828114  0.87430479    -0.59800
H347        H  0.31737825  0.39575032  0.77060950     0.17200
O348        O  0.32488618  0.44292113  0.82648504    -0.59900
H349        H  0.30273342  0.43929256  0.83567235     0.44200
H350        H  0.32660163  0.32105367  0.89705549     0.44100
C351        C  0.33170774  0.41000795  0.11497723    -0.04900
C352        C  0.33016969  0.37899043  0.10548401    -0.32400
C353        C  0.32406578  0.35534644  0.13958137     0.36900
C354        C  0.32236135  0.36374847  0.18467305    -0.05300
C355        C  0.32162782  0.39359972  0.19383058    -0.32300
C356        C  0.32556395  0.41628231  0.15934124     0.36800
H357        H  0.33443377  0.37330332  0.07167213     0.17200
O358        O  0.32119172  0.32471095  0.12867870    -0.59800
H359        H  0.31931766  0.40013867  0.22808070     0.17200
O360        O  0.32337699  0.44454874  0.16912272    -0.59900
H361        H  0.34186085  0.45843192  0.19056765     0.44200
H362        H  0.29668767  0.30829591  0.12567145     0.44100
C363        C  0.05805285  0.14561411  0.10953234    -0.04900
C364        C  0.03180280  0.11937506  0.13469764    -0.32400
C365        C  0.01758443  0.12702910  0.17090992     0.36900
C366        C  0.02879039  0.16142649  0.18164244    -0.05300
C367        C  0.05527090  0.18771128  0.15664802    -0.32300
C368        C  0.06992786  0.17998812  0.12088095     0.36800
H369        H  0.02307253  0.09282677  0.12701594     0.17200
O370        O  0.99276307  0.10069594  0.19564000    -0.59800
H371        H  0.06427339  0.21427357  0.16459636     0.17200
O372        O  0.09592508  0.20612965  0.09736495    -0.59900
H373        H  0.11667512  0.20942084  0.11171734     0.44200
H374        H  0.00424482  0.09889445  0.22266172     0.44100
C375        C  0.03223346  0.15394848  0.80464930    -0.04900
C376        C  0.01720544  0.11943945  0.81807320    -0.32400
C377        C  0.03057510  0.10990357  0.85362294     0.36900
C378        C  0.06077383  0.13460651  0.87422897    -0.05300
C379        C  0.07694037  0.16861917  0.85903942    -0.32300
C380        C  0.06274283  0.17847334  0.82508055     0.36800
H381        H  0.99405168  0.10003099  0.80244981     0.17200
O382        O  0.01318049  0.07691629  0.86968956    -0.59800
H383        H  0.10015642  0.18786201  0.87474798     0.17200
O384        O  0.07837790  0.21238462  0.81321740    -0.59900
H385        H  0.06700128  0.22187986  0.83105189     0.44200
H386        H  0.01218676  0.06216768  0.84452710     0.44100
C387        C  0.16591804  0.06782780  0.89027810    -0.04900
C388        C  0.16669562  0.03784053  0.89870754    -0.32400
C389        C  0.17730760  0.02340882  0.86558276     0.36900
C390        C  0.18280757  0.03607483  0.82111579    -0.05300
C391        C  0.18423485  0.06732690  0.81353497    -0.32300
C392        C  0.17730204  0.08383076  0.84803867     0.36800
H393        H  0.15872046  0.02519482  0.93099156     0.17200
O394        O  0.18249418  0.49716482  0.87667336    -0.59800
H395        H  0.18968780  0.07867414  0.78035264     0.17200
O396        O  0.18113952  0.11538792  0.84014400    -0.59900
H397        H  0.16575590  0.11217186  0.81499592     0.44200
H398        H  0.16312914  0.48077483  0.89544663     0.44100
C399        C  0.17329314  0.04006565  0.19199253    -0.04900
C400        C  0.13966402  0.02881885  0.18144294    -0.32400
C401        C  0.13182759  0.04465287  0.14737595     0.36900
C402        C  0.15768946  0.07347747  0.12490831    -0.05300
C403        C  0.19110252  0.08706593  0.13877939    -0.32300
C404        C  0.19911071  0.07014794  0.17128833     0.36800
H405        H  0.11941317  0.00644732  0.19792848     0.17200
O406        O  0.09888993  0.03080091  0.13461072    -0.59800
H407        H  0.21112374  0.10993911  0.12287381     0.17200
O408        O  0.23229270  0.08235831  0.18103684    -0.59900
H409        H  0.23881926  0.06896380  0.16178946     0.44200
H410        H  0.08845292  0.03756640  0.15835478     0.44100
C411        C  0.32393900  0.23777461  0.39981964    -0.04900
C412        C  0.34108533  0.27358973  0.40537226    -0.32400
C413        C  0.34013978  0.29484687  0.37216207     0.36900
C414        C  0.32214958  0.28057075  0.33234034    -0.05300
C415        C  0.30503035  0.24490838  0.32638169    -0.32300
C416        C  0.30571142  0.22348560  0.35976431     0.36800
H417        H  0.35536320  0.28529519  0.43567345     0.17200
O418        O  0.35783155  0.32967906  0.37818995    -0.59800
H419        H  0.29137162  0.23371266  0.29550817     0.17200
O420        O  0.28909961  0.18881500  0.35239472    -0.59900
H421        H  0.30613688  0.18444980  0.33908074     0.44200
H422        H  0.34376041  0.33439268  0.39851337     0.44100
C423        C  0.32021420  0.27897304  0.66565757    -0.05300
C424        C  0.29193353  0.24832023  0.65097334    -0.32400
C425        C  0.29475966  0.22882686  0.61662002     0.36900
C426        C  0.32629628  0.23983381  0.59643262    -0.05300
C427        C  0.35438029  0.27073257  0.61074079    -0.32300
C428        C  0.35145480  0.29037331  0.64454402     0.36800
H429        H  0.26776690  0.23902785  0.66698787     0.17200
O430        O  0.26672922  0.19861528  0.60396965    -0.59800
H431        H  0.37872859  0.27993747  0.59530706     0.17200
O432        O  0.37940957  0.32075741  0.65683197    -0.59900
H433        H  0.37844653  0.33852445  0.63876013     0.44200
H434        H  0.26703499  0.18071769  0.62259243     0.44100
C435        C  0.46231996  0.18139265  0.66641899    -0.04900
C436        C  0.46131587  0.21063956  0.65460682    -0.32400
C437        C  0.43968627  0.20905573  0.62040199     0.36900
C438        C  0.41856986  0.17780984  0.59794286    -0.05300
C439        C  0.41983060  0.14872435  0.60997545    -0.32300
C440        C  0.44139632  0.15034922  0.64385843     0.36800
H441        H  0.47672178  0.23443783  0.67255507     0.17200
O442        O  0.43802334  0.23760590  0.61092317    -0.59800
H443        H  0.40407620  0.12454937  0.59295524     0.17200
O444        O  0.44209460  0.12143788  0.65469662    -0.59900
H445        H  0.42123488  0.10693068  0.67215076     0.44200
H446        H  0.45699156  0.25136136  0.59006484     0.44100
C447        C  0.42357410  0.18611694  0.40163027    -0.04900
C448        C  0.44228136  0.16990632  0.40653433    -0.32400
C449        C  0.46312943  0.17066694  0.37193518     0.36900
C450        C  0.46562803  0.18783191  0.33146631    -0.05300
C451        C  0.44773094  0.20482191  0.32692596    -0.32300
C452        C  0.42717202  0.20443727  0.36172192     0.36800
H453        H  0.44021858  0.15593513  0.43700780     0.17200
O454        O  0.47986363  0.15336511  0.37734600    -0.59800
H455        H  0.44911198  0.21777491  0.29575237     0.17200
O456        O  0.40908506  0.22019858  0.35512126    -0.59900
H457        H  0.42437326  0.24436049  0.36423970     0.44200
H458        H  0.46479494  0.13032899  0.36435865     0.44100
C459        C  0.26624200  0.08379844  0.59712283    -0.04900
C460        C  0.23933073  0.08535630  0.61595414    -0.32400
C461        C  0.22029714  0.06356261  0.65108475     0.36900
C462        C  0.22789537  0.03953268  0.66836665    -0.05300
C463        C  0.25456732  0.03757818  0.64950784    -0.32300
C464        C  0.27361225  0.05935518  0.61400556     0.36800
H465        H  0.23281390  0.10349733  0.60329395     0.17200
O466        O  0.19363501  0.06531651  0.66771248    -0.59800
H467        H  0.26103448  0.01959341  0.66284831     0.17200
O468        O  0.30026418  0.05755691  0.59753776    -0.59900
H469        H  0.29029879  0.03839353  0.57568988     0.44200
H470        H  0.20375451  0.08595109  0.68712889     0.44100
C471        C  0.22936135  0.03666267  0.33083268    -0.04900
C472        C  0.21472278  0.03622936  0.37209149    -0.32400
C473        C  0.23424254  0.05841768  0.40667326     0.36900
C474        C  0.26918441  0.08100852  0.40056216    -0.05300
C475        C  0.28394607  0.08050118  0.35962286    -0.32300
C476        C  0.26420191  0.05886719  0.32470305     0.36800
H477        H  0.18786495  0.01950473  0.37691708     0.17200
O478        O  0.21894271  0.05756104  0.44648853    -0.59800
H479        H  0.31062374  0.09780856  0.35407243     0.17200
O480        O  0.27888896  0.06043688  0.28407685    -0.59900
H481        H  0.28752142  0.04464106  0.28691869     0.44200
H482        H  0.20849905  0.07155050  0.44124694     0.44100
O483        O  0.32074918  0.61593736  0.43966825    -0.84800
O484        O  0.38775885  0.65656015  0.46339706    -0.81900
C485        C  0.39941125  0.68213727  0.43734084     0.98600
O486        O  0.39079663  0.70407332  0.44208547    -0.81900
O487        O  0.35076023  0.73045075  0.46298198    -0.84500
C488        C  0.32642077  0.71641342  0.43563704     1.03200
O489        O  0.30427045  0.68507582  0.43980913    -0.77300
O490        O  0.27634435  0.61670880  0.46264463    -0.77500
C491        C  0.28995317  0.60593283  0.43583088     1.03100
O492        O  0.30282209  0.60090732  0.53345543    -0.84800
O493        O  0.36841579  0.64636533  0.55587221    -0.81900
C494        C  0.39514378  0.67474894  0.56199998     0.98700
O495        O  0.40262472  0.69997587  0.53654162    -0.81900
O496        O  0.35813090  0.72088413  0.55652787    -0.84500
C497        C  0.33044490  0.71959933  0.56069250     1.03100
O498        O  0.30661296  0.70199253  0.53364313    -0.77300
O499        O  0.28557317  0.63520688  0.55545578    -0.77500
C500        C  0.28616451  0.60799516  0.56043203     1.03100
Cr501      Cr  0.34439879  0.63273785  0.49798739     1.93700
Cr502      Cr  0.37284959  0.71045700  0.49941037     1.93200
Cr503      Cr  0.29648867  0.66036726  0.49783035     1.39100
O504        O  0.33797175  0.66789575  0.49848238    -1.22600
N505        N  0.11240717  0.61193102  0.06819917    -0.36100
N506        N  0.14587083  0.59013322  0.00450165    -0.56600
N507        N  0.11504304  0.60638342  0.93139305    -0.36100
N508        N  0.08202145  0.62885888  0.99500263    -0.56600
C509        C  0.12956749  0.60385825  0.09747772     0.27500
C510        C  0.09694258  0.62508325  0.09236313     0.27500
C511        C  0.12548387  0.58715618  0.90994428     0.27500
C512        C  0.09209374  0.60764735  0.90443093     0.27500
C513        C  0.15929785  0.58648567  0.04288452     0.36100
C514        C  0.16164102  0.58485933  0.96998477     0.36100
C515        C  0.07016374  0.63916184  0.02926565     0.36100
C516        C  0.07122792  0.63574874  0.95652682     0.36100
C517        C  0.12518346  0.61224251  0.14069030    -0.21400
C518        C  0.10475496  0.62563997  0.13749505    -0.21400
C519        C  0.10837449  0.57562793  0.86953967    -0.21400
C520        C  0.08821674  0.58930885  0.86548691    -0.21400
C521        C  0.18402541  0.57908246  0.03258579    -0.22400
C522        C  0.18628699  0.57923936  0.98663477    -0.22400
C523        C  0.05148711  0.65256656  0.01241726    -0.22400
C524        C  0.05236759  0.65065318  0.96638303    -0.22400
C525        C  0.14909150  0.58898122  0.08698796    -0.17800
C526        C  0.07568523  0.63643252  0.07553815    -0.17800
C527        C  0.07543180  0.62591719  0.91298351    -0.17800
C528        C  0.15136630  0.58122286  0.92435484    -0.17800
H529        H  0.13588230  0.60932464  0.17145946     0.15100
H530        H  0.09673724  0.63489259  0.16545574     0.15100
H531        H  0.11046083  0.55935901  0.84491981     0.15100
H532        H  0.07245693  0.58584547  0.83687774     0.15100
H533        H  0.19925892  0.57428189  0.05535010     0.13400
H534        H  0.20360070  0.57470810  0.96793866     0.13400
H535        H  0.03844082  0.66253982  0.03125490     0.13400
H536        H  0.03963684  0.65834942  0.94297217     0.13400
H537        H  0.10955380  0.60647167  0.03428227     0.26700
H538        H  0.12576471  0.62108362  0.96006332     0.26700
N539        N  0.36992540  0.99710426  0.93040982    -0.36100
N540        N  0.39484987  0.54940832  0.99898711    -0.56600
N541        N  0.36895105  0.99821071  0.06729540    -0.36100
N542        N  0.34429966  0.94562532  0.99881169    -0.56600
C543        C  0.39488591  0.52501850  0.90947377     0.27500
C544        C  0.36609944  0.96916970  0.90891158     0.27500
C545        C  0.39299837  0.52654738  0.08853915     0.27500
C546        C  0.36677224  0.97083545  0.08820595     0.27500
C547        C  0.39760705  0.56770172  0.96204975     0.36100
C548        C  0.39587913  0.56814996  0.03460154     0.36100
C549        C  0.32734077  0.92661005  0.96278940     0.36100
C550        C  0.32802557  0.92714849  0.03552125     0.36100
C551        C  0.40769382  0.51472960  0.87480201    -0.21400
C552        C  0.38949744  0.97938909  0.87448297    -0.21400
C553        C  0.40713439  0.51717163  0.12248029    -0.21400
C554        C  0.39053091  0.98185511  0.12224652    -0.21400
C555        C  0.39888703  0.59776020  0.97393274    -0.22400
C556        C  0.39769531  0.59801390  0.02021126    -0.22400
C557        C  0.29915821  0.89629078  0.97666514    -0.22400
C558        C  0.29972419  0.89654250  0.02296645    -0.22400
C559        C  0.40405800  0.55918827  0.91929773    -0.17800
C560        C  0.34040159  0.93509215  0.91869908    -0.17800
C561        C  0.34162307  0.93651208  0.07912635    -0.17800
C562        C  0.40056193  0.56018555  0.07876377    -0.17800
H563        H  0.42784486  0.53095301  0.85190265     0.15100
H564        H  0.39293909  0.96313271  0.85136761     0.15100
H565        H  0.42708453  0.53397124  0.14522621     0.15100
H566        H  0.39502770  0.96608188  0.14496448     0.15100
H567        H  0.40190445  0.61798759  0.95174972     0.13400
H568        H  0.39955361  0.61848285  0.04080607     0.13400
H569        H  0.28081260  0.87566578  0.95575965     0.13400
H570        H  0.28196158  0.87618340  0.04475774     0.13400
H571        H  0.35378893  0.99713576  0.95481522     0.26700
H572        H  0.35222744  0.99743141  0.04318744     0.26700
N573        N  0.50606749  0.89484744  0.06610852    -0.36100
N574        N  0.45136563  0.87256140  0.00071005    -0.56600
N575        N  0.49922122  0.88524016  0.92931577    -0.36100
N576        N  0.05412007  0.90973365  0.99469083    -0.56600
C577        C  0.48179541  0.89472521  0.09161394     0.27500
C578        C  0.03572200  0.91420763  0.08792246     0.27500
C579        C  0.47125147  0.87452180  0.90407093     0.27500
C580        C  0.02552332  0.89610597  0.90079179     0.27500
C581        C  0.43316462  0.86627474  0.03869711     0.36100
C582        C  0.42936802  0.86092824  0.96604177     0.36100
C583        C  0.07436113  0.91438485  0.02999324     0.36100
C584        C  0.07147050  0.91195042  0.95710946     0.36100
C585        C  0.49619639  0.91406275  0.13000449    -0.21400
C586        C  0.03016033  0.92699877  0.12711374    -0.21400
C587        C  0.47985780  0.87730387  0.85891670    -0.21400
C588        C  0.01393325  0.89107110  0.85688788    -0.21400
C589        C  0.39931657  0.85114268  0.02809760    -0.22400
C590        C  0.39694549  0.84795677  0.98209879    -0.22400
C591        C  0.10445044  0.91848333  0.01473112    -0.22400
C592        C  0.10304700  0.91805465  0.96867928    -0.22400
C593        C  0.44680472  0.87610729  0.08248045    -0.17800
C594        C  0.06737042  0.91897803  0.07496732    -0.17800
C595        C  0.05980892  0.91023099  0.91261756    -0.17800
C596        C  0.43812177  0.86251300  0.92003685    -0.17800
H597        H  0.48384986  0.91877624  0.15740485     0.15100
H598        H  0.04859466  0.94360380  0.15165302     0.15100
H599        H  0.46343335  0.87025970  0.83006241     0.15100
H600        H  0.02844449  0.89638494  0.82632347     0.15100
H601        H  0.37856548  0.84391527  0.05097861     0.13400
H602        H  0.37397096  0.83741072  0.96275438     0.13400
H603        H  0.12575785  0.92246928  0.03442496     0.13400
H604        H  0.12313850  0.92168414  0.94666684     0.13400
H605        H  0.50195883  0.87905793  0.03866223     0.26700
H606        H  0.50038546  0.88515487  0.96385877     0.26700
C607        C  0.01817067  0.69665098  0.29179148     0.02800
C608        C  0.48328836  0.68454442  0.29188161     0.02800
C609        C  0.46373746  0.66651939  0.25442256    -0.17700
C610        C  0.47763149  0.65892822  0.21746564     0.02800
C611        C  0.01248495  0.67024124  0.21800276     0.02800
C612        C  0.03227327  0.68946411  0.25469595    -0.17700
H613        H  0.05891708  0.69834651  0.25480354     0.04800
H614        H  0.43703820  0.65736054  0.25470945     0.04800
C615        C  0.32263497  0.80278029  0.29564429     0.02800
C616        C  0.30109738  0.81606669  0.29555809     0.02800
C617        C  0.30078176  0.83461600  0.25821853    -0.17700
C618        C  0.32358001  0.84307826  0.22267106     0.02800
C619        C  0.34825922  0.83351858  0.22548570     0.02800
C620        C  0.34627305  0.81199704  0.26087840    -0.17700
H621        H  0.36415936  0.80346053  0.26246309     0.04800
H622        H  0.28312113  0.84347613  0.25763482     0.04800
C623        C  0.48254973  0.68162164  0.70495189     0.02800
C624        C  0.01716015  0.69366985  0.70122400     0.02800
C625        C  0.03287160  0.68479441  0.73445999    -0.17700
C626        C  0.01483137  0.66456335  0.77183156     0.02800
C627        C  0.48041935  0.65454674  0.77682223     0.02800
C628        C  0.46515771  0.66383654  0.74358153    -0.17700
H629        H  0.43875258  0.65561789  0.74658572     0.04800
H630        H  0.05916013  0.69288280  0.73037049     0.04800
C631        C  0.31766549  0.79804662  0.70465104     0.02800
C632        C  0.29464837  0.80968179  0.70581317     0.02800
C633        C  0.29404002  0.82797246  0.74344032    -0.17700
C634        C  0.31638856  0.83595749  0.77948936     0.02800
C635        C  0.33977285  0.82470218  0.77802291     0.02800
C636        C  0.33936563  0.80510608  0.74139192    -0.17700
H637        H  0.35702856  0.79625247  0.74078640     0.04800
H638        H  0.27680016  0.83735284  0.74381789     0.04800
C639        C  0.18833772  0.98169288  0.70417466     0.02800
C640        C  0.20848708  0.51775094  0.70721848     0.02800
C641        C  0.20767846  0.53414603  0.74688866    -0.17700
C642        C  0.18474032  0.51618888  0.78185054     0.02800
C643        C  0.16214709  0.98023006  0.77640742     0.02800
C644        C  0.16525565  0.96355060  0.73857951    -0.17700
H645        H  0.14829864  0.93619325  0.73460971     0.04800
H646        H  0.22452188  0.56160065  0.74968860     0.04800
C647        C  0.19050512  0.98094246  0.28996116     0.02800
C648        C  0.20769595  0.51706187  0.29252552     0.02800
C649        C  0.20250527  0.53554263  0.25915086    -0.17700
C650        C  0.18113054  0.51913110  0.22253122     0.02800
C651        C  0.16631873  0.98304747  0.21733665     0.02800
C652        C  0.17128481  0.96467054  0.25146899    -0.17700
H653        H  0.15929868  0.93708046  0.24882589     0.04800
H654        H  0.21390476  0.56299291  0.26319807     0.04800
O655        O  0.11556301  0.81105187  0.55485887    -0.84800
O656        O  0.15631019  0.87998455  0.53345948    -0.81900
C657        C  0.18096954  0.89195705  0.56031587     0.98600
O658        O  0.20246408  0.88296594  0.55679910    -0.81900
O659        O  0.22924150  0.84248940  0.53607725    -0.84500
C660        C  0.21513727  0.81648639  0.56146248     1.03200
O661        O  0.18436057  0.79437812  0.55659920    -0.77300
O662        O  0.11770522  0.76638958  0.53282607    -0.77500
C663        C  0.10632371  0.77981505  0.55917248     1.03100
O664        O  0.10345829  0.79457709  0.46052867    -0.84800
O665        O  0.14899086  0.86184868  0.44019550    -0.81900
C666        C  0.17677589  0.88947112  0.43553535     0.98700
O667        O  0.20085747  0.89670945  0.46215883    -0.81900
O668        O  0.22185880  0.85156967  0.44283209    -0.84500
C669        C  0.22118346  0.82368206  0.43844436     1.03100
O670        O  0.20255515  0.79840534  0.46349093    -0.77300
O671        O  0.13696405  0.77631128  0.44024811    -0.77500
C672        C  0.11025293  0.77679000  0.43485299     1.03100
Cr673      Cr  0.13387790  0.83632367  0.49744652     1.93700
Cr674      Cr  0.21016454  0.86553571  0.49949093     1.93200
Cr675      Cr  0.16102689  0.78739942  0.49833760     1.39100
O676        O  0.16838504  0.82976225  0.49838995    -1.22600
C677        C  0.18842922  0.95903143  0.32848544    -0.04900
C678        C  0.15654583  0.93578890  0.34611870    -0.32400
C679        C  0.15257592  0.91348849  0.38103409     0.36900
C680        C  0.18083043  0.91387747  0.39931246    -0.05300
C681        C  0.21296183  0.93766902  0.38229371    -0.32300
C682        C  0.21684169  0.95985992  0.34683988     0.36800
H683        H  0.13442896  0.93491721  0.33259949     0.17200
O684        O  0.12080702  0.89147943  0.39709532    -0.59800
H685        H  0.23505563  0.93845554  0.39568847     0.17200
O686        O  0.24833787  0.98159481  0.32983095    -0.59900
H687        H  0.25013701  0.96982167  0.30292217     0.44200
H688        H  0.11800100  0.90361430  0.42281428     0.44100
C689        C  0.18467046  0.91697660  0.59560179    -0.04900
C690        C  0.20306971  0.92063241  0.63488144    -0.32400
C691        C  0.20530535  0.94255339  0.66960679     0.36900
C692        C  0.18959017  0.96185088  0.66532442    -0.05300
C693        C  0.17212407  0.95920174  0.62569348    -0.32300
C694        C  0.16938006  0.93687176  0.59114776     0.36800
H695        H  0.21494647  0.90566710  0.63933096     0.17200
O696        O  0.22196778  0.94409223  0.70838993    -0.59800
H697        H  0.15976833  0.97377742  0.62206956     0.17200
O698        O  0.15208517  0.93510936  0.55290150    -0.59900
H699        H  0.12804945  0.91912435  0.56024619     0.44200
H700        H  0.24551816  0.96288685  0.70348523     0.44100
C701        C  0.27359002  0.80695848  0.66667011    -0.04900
C702        C  0.28922311  0.82434080  0.62684867    -0.32400
C703        C  0.27041508  0.82692017  0.59196780     0.36900
C704        C  0.23523904  0.81192149  0.59650821    -0.05300
C705        C  0.21943804  0.79305228  0.63551552    -0.32300
C706        C  0.23839427  0.79091701  0.67066488     0.36800
H707        H  0.31631645  0.83709033  0.62348346     0.17200
O708        O  0.28684041  0.84471691  0.55393134    -0.59800
H709        H  0.19245835  0.78100737  0.63956063     0.17200
O710        O  0.22239952  0.77325992  0.70898560    -0.59900
H711        H  0.21689999  0.78853741  0.72579694     0.44200
H712        H  0.28500901  0.82713356  0.53257515     0.44100
C713        C  0.03745360  0.71519851  0.66289788    -0.04900
C714        C  0.05088661  0.75070691  0.66416614    -0.32400
C715        C  0.07265897  0.77209773  0.63026456     0.36900
C716        C  0.08160014  0.75801382  0.59442446    -0.05300
C717        C  0.06720733  0.72216893  0.59287916    -0.32300
C718        C  0.04530907  0.70090581  0.62661608     0.36800
H719        H  0.04506113  0.76196472  0.69215624     0.17200
O720        O  0.08621281  0.80679894  0.63376028    -0.59800
H721        H  0.07321210  0.71046939  0.56563544     0.17200
O722        O  0.03244486  0.66625178  0.62450126    -0.59900
H723        H  0.01003813  0.65667623  0.61026488     0.44200
H724        H  0.06929587  0.81119952  0.62012915     0.44100
C725        C  0.28221594  0.81580719  0.33578295    -0.04900
C726        C  0.29283265  0.84714490  0.35723696    -0.32400
C727        C  0.27352887  0.84983898  0.39113155     0.36900
C728        C  0.24292301  0.82077177  0.40442663    -0.05300
C729        C  0.23306322  0.78892103  0.38442161    -0.32300
C730        C  0.25235153  0.78639523  0.34992645     0.36800
H731        H  0.31594941  0.86992220  0.34678710     0.17200
O732        O  0.28519055  0.88091500  0.41167939    -0.59800
H733        H  0.20974842  0.76620462  0.39437785     0.17200
O734        O  0.24130490  0.75544219  0.32941373    -0.59900
H735        H  0.22808210  0.75524598  0.30313491     0.44200
H736        H  0.27932728  0.89413237  0.39101373     0.44100
C737        C  0.04061960  0.71676303  0.32969714    -0.04900
C738        C  0.05906043  0.70463383  0.35214309    -0.32400
C739        C  0.08151655  0.72373100  0.38664203     0.36900
C740        C  0.08617035  0.75578149  0.39902171    -0.05300
C741        C  0.06736750  0.76769258  0.37694634    -0.32300
C742        C  0.04506752  0.74865838  0.34221439     0.36800
H743        H  0.05587446  0.68011702  0.34295964     0.17200
O744        O  0.09843182  0.71057524  0.40843362    -0.59800
H745        H  0.07062717  0.79228535  0.38585567     0.17200
O746        O  0.02838038  0.76185491  0.31995559    -0.59900
H747        H  0.04292031  0.77448843  0.29397494     0.44200
H748        H  0.08446313  0.69854281  0.43510363     0.44100
C749        C  0.36593288  0.83441762  0.81320300    -0.04900
C750        C  0.36609101  0.80886752  0.83951178    -0.32400
C751        C  0.38865412  0.81765297  0.87540594     0.36900
C752        C  0.41144186  0.85234580  0.88538868    -0.05300
C753        C  0.41179975  0.87781215  0.85843640    -0.32300
C754        C  0.38971116  0.86908472  0.82206560     0.36800
H755        H  0.34808494  0.78209799  0.83286277     0.17200
O756        O  0.38816942  0.79222834  0.90066992    -0.59800
H757        H  0.43013792  0.90455225  0.86475256     0.17200
O758        O  0.39231412  0.89434010  0.79411248    -0.59900
H759        H  0.38879314  0.90997125  0.81337728     0.44200
H760        H  0.40588230  0.78883340  0.88753833     0.44100
C761        C  0.08502483  0.92667277  0.87592543    -0.04900
C762        C  0.10431285  0.91286001  0.86135132    -0.32400
C763        C  0.12903953  0.92955541  0.82820486     0.36900
C764        C  0.13372468  0.95975167  0.80791403    -0.05300
C765        C  0.11213584  0.97155482  0.81968481    -0.32300
C766        C  0.08899225  0.95615937  0.85458869     0.36800
H767        H  0.10096279  0.88975460  0.87676552     0.17200
O768        O  0.15012140  0.91769122  0.81830004    -0.59800
H769        H  0.11462033  0.49407417  0.80355092     0.17200
O770        O  0.07040436  0.97022694  0.86793459    -0.59900
H771        H  0.08413057  0.48715924  0.89143015     0.44200
H772        H  0.13646043  0.89675519  0.80006015     0.44100
C773        C  0.09489622  0.93229952  0.10958390    -0.04900
C774        C  0.12628807  0.96191729  0.10105648    -0.32400
C775        C  0.15124814  0.97598852  0.13415729     0.36900
C776        C  0.14365563  0.96360354  0.17868538    -0.05300
C777        C  0.11293254  0.93302497  0.18673010    -0.32300
C778        C  0.08927381  0.91673237  0.15226799     0.36800
H779        H  0.13154836  0.97443575  0.06862940     0.17200
O780        O  0.18254821  0.50272979  0.12294465    -0.59800
H781        H  0.10664199  0.92207559  0.22013586     0.17200
O782        O  0.06047141  0.88580488  0.16056215    -0.59900
H783        H  0.04842316  0.89006542  0.18482808     0.44200
H784        H  0.19594224  0.49202858  0.11572877     0.44100
C785        C  0.42307526  0.86598741  0.12103793    -0.04900
C786        C  0.41830319  0.89024967  0.14337038    -0.32400
C787        C  0.39620843  0.88057196  0.17992081     0.36900
C788        C  0.37622619  0.84564676  0.19216596    -0.05300
C789        C  0.38186682  0.82166191  0.17057276    -0.32300
C790        C  0.40530802  0.83169445  0.13565330     0.36800
H791        H  0.43213136  0.91682676  0.13284237     0.17200
O792        O  0.39394652  0.90535526  0.20297590    -0.59800
H793        H  0.36735084  0.79485401  0.17991317     0.17200
O794        O  0.41080008  0.80781501  0.11589650    -0.59900
H795        H  0.39285020  0.79636159  0.09299551     0.44200
H796        H  0.41101267  0.91287219  0.22714256     0.44100
C797        C  0.41723680  0.58773126  0.11353332    -0.04900
C798        C  0.44570286  0.61953080  0.10229680    -0.32400
C799        C  0.46316299  0.64454548  0.13503580     0.36900
C800        C  0.45474155  0.63679083  0.18075746    -0.05300
C801        C  0.42509256  0.60599471  0.19176834    -0.32300
C802        C  0.40594027  0.58197225  0.15849467     0.36800
H803        H  0.45493361  0.62496049  0.06809014     0.17200
O804        O  0.98912484  0.67608445  0.12204433    -0.59800
H805        H  0.41728805  0.59988828  0.22649732     0.17200
O806        O  0.37617065  0.55296743  0.17003816    -0.59900
H807        H  0.38212660  0.54033181  0.19161360     0.44200
H808        H  0.97936441  0.69097033  0.12096634     0.44100
C809        C  0.42201176  0.58631598  0.88457607    -0.04900
C810        C  0.40952394  0.58002965  0.84054168    -0.32400
C811        C  0.42818018  0.60204031  0.80554200     0.36900
C812        C  0.45898434  0.63247144  0.81447664    -0.05300
C813        C  0.47009682  0.64034256  0.85916845    -0.32300
C814        C  0.45255816  0.61698996  0.89387852     0.36800
H815        H  0.38601647  0.55675662  0.83278408     0.17200
O816        O  0.41682048  0.59255904  0.76240145    -0.59800
H817        H  0.99357800  0.66367103  0.86680936     0.17200
O818        O  0.46681856  0.62295394  0.93580729    -0.59900
H819        H  0.96770948  0.64391640  0.94697508     0.44200
H820        H  0.42806325  0.58045074  0.75124368     0.44100
C821        C  0.32966631  0.90774432  0.88359923    -0.04900
C822        C  0.32573544  0.87585169  0.89470840    -0.32400
C823        C  0.31761745  0.85067723  0.86186564     0.36900
C824        C  0.31675651  0.85846315  0.81626772    -0.05300
C825        C  0.31884062  0.88952265  0.80532860    -0.32300
C826        C  0.32411216  0.91347386  0.83862606     0.36800
H827        H  0.32931803  0.87038274  0.92894895     0.17200
O828        O  0.30975560  0.81828150  0.87430057    -0.59800
H829        H  0.31738134  0.89575343  0.77060620     0.17200
O830        O  0.32489145  0.94292487  0.82648248    -0.59900
H831        H  0.30274150  0.93929977  0.83567785     0.44200
H832        H  0.32659754  0.82105222  0.89705303     0.44100
C833        C  0.33171022  0.91000950  0.11497529    -0.04900
C834        C  0.33016862  0.87899016  0.10548293    -0.32400
C835        C  0.32406220  0.85534595  0.13958089     0.36900
C836        C  0.32235925  0.86374964  0.18467207    -0.05300
C837        C  0.32162853  0.89360246  0.19382882    -0.32300
C838        C  0.32556710  0.91628547  0.15933885     0.36800
H839        H  0.33443198  0.87330174  0.07167140     0.17200
O840        O  0.32118466  0.82470867  0.12867962    -0.59800
H841        H  0.31931925  0.90014243  0.22807876     0.17200
O842        O  0.32338331  0.94455390  0.16911931    -0.59900
H843        H  0.34186760  0.95843608  0.19056414     0.44200
H844        H  0.29668065  0.80829766  0.12566098     0.44100
C845        C  0.05805754  0.64561957  0.10953196    -0.04900
C846        C  0.03180622  0.61937943  0.13469452    -0.32400
C847        C  0.01758691  0.62703176  0.17090739     0.36900
C848        C  0.02879256  0.66142866  0.18164285    -0.05300
C849        C  0.05527408  0.68771454  0.15665089    -0.32300
C850        C  0.06993255  0.67999303  0.12088385     0.36800
H851        H  0.02307594  0.59283148  0.12701056     0.17200
O852        O  0.99276513  0.60069732  0.19563539    -0.59800
H853        H  0.06427666  0.71427647  0.16460158     0.17200
O854        O  0.09593151  0.70613562  0.09737145    -0.59900
H855        H  0.11668048  0.70942790  0.11172858     0.44200
H856        H  0.00424551  0.59889765  0.22265987     0.44100
C857        C  0.03223494  0.65394901  0.80464827    -0.04900
C858        C  0.01720687  0.61944032  0.81807333    -0.32400
C859        C  0.03057673  0.60990520  0.85362356     0.36900
C860        C  0.06077573  0.63460862  0.87422860    -0.05300
C861        C  0.07694251  0.66862086  0.85903737    -0.32300
C862        C  0.06274471  0.67847428  0.82507811     0.36800
H863        H  0.99405280  0.60003167  0.80245079     0.17200
O864        O  0.01318204  0.57691835  0.86969187    -0.59800
H865        H  0.10015889  0.68786398  0.87474497     0.17200
O866        O  0.07837991  0.71238525  0.81321324    -0.59900
H867        H  0.06700078  0.72188019  0.83104280     0.44200
H868        H  0.01218316  0.56216821  0.84452820     0.44100
C869        C  0.16591519  0.56782585  0.89027598    -0.04900
C870        C  0.16669372  0.53783921  0.89870637    -0.32400
C871        C  0.17730506  0.52340688  0.86558168     0.36900
C872        C  0.18280466  0.53607234  0.82111446    -0.05300
C873        C  0.18423005  0.56732333  0.81353232    -0.32300
C874        C  0.17729693  0.58382733  0.84803532     0.36800
H875        H  0.15871967  0.52519441  0.93099108     0.17200
O876        O  0.18249721  0.99716700  0.87667408    -0.59800
H877        H  0.18968192  0.57866962  0.78034943     0.17200
O878        O  0.18113227  0.61538337  0.84013887    -0.59900
H879        H  0.16574685  0.61216513  0.81499220     0.44200
H880        H  0.16313304  0.98077738  0.89544888     0.44100
C881        C  0.17329407  0.54006393  0.19198722    -0.04900
C882        C  0.13966496  0.52881650  0.18143644    -0.32400
C883        C  0.13182864  0.54465120  0.14737020     0.36900
C884        C  0.15769049  0.57347721  0.12490484    -0.05300
C885        C  0.19110337  0.58706588  0.13877678    -0.32300
C886        C  0.19911154  0.57014724  0.17128469     0.36800
H887        H  0.11941408  0.50644421  0.19792067     0.17200
O888        O  0.09889119  0.53079879  0.13460363    -0.59800
H889        H  0.21112453  0.60993995  0.12287274     0.17200
O890        O  0.23229353  0.58235846  0.18103433    -0.59900
H891        H  0.23881984  0.56896149  0.16179156     0.44200
H892        H  0.08845298  0.53756236  0.15834831     0.44100
C893        C  0.32393834  0.73777451  0.39981530    -0.04900
C894        C  0.34108436  0.77358956  0.40536904    -0.32400
C895        C  0.34013817  0.79484722  0.37216016     0.36900
C896        C  0.32214769  0.78057182  0.33233841    -0.05300
C897        C  0.30502882  0.74490954  0.32637853    -0.32300
C898        C  0.30571049  0.72348619  0.35975992     0.36800
H899        H  0.35536245  0.78529458  0.43567022     0.17200
O900        O  0.35782960  0.82967927  0.37818936    -0.59800
H901        H  0.29137001  0.73371434  0.29550490     0.17200
O902        O  0.28909902  0.68881577  0.35238905    -0.59900
H903        H  0.30613649  0.68445111  0.33907456     0.44200
H904        H  0.34375758  0.83439236  0.39851180     0.44100
C905        C  0.32021379  0.77897299  0.66565424    -0.05300
C906        C  0.29193420  0.74831757  0.65097414    -0.32400
C907        C  0.29476067  0.72882430  0.61662072     0.36900
C908        C  0.32629639  0.73983433  0.59642844    -0.05300
C909        C  0.35437916  0.77073573  0.61073236    -0.32300
C910        C  0.35145334  0.79037604  0.64453615     0.36800
H911        H  0.26776837  0.73902319  0.66699206     0.17200
O912        O  0.26673167  0.69860976  0.60397526    -0.59800
H913        H  0.37872667  0.77994288  0.59529496     0.17200
O914        O  0.37940675  0.82076256  0.65682019    -0.59900
H915        H  0.37843951  0.83852736  0.63874866     0.44200
H916        H  0.26704371  0.68071449  0.62259568     0.44100
C917        C  0.46232082  0.68139120  0.66641315    -0.04900
C918        C  0.46131772  0.71063868  0.65460099    -0.32400
C919        C  0.43968881  0.70905570  0.62039567     0.36900
C920        C  0.41857192  0.67781004  0.59793640    -0.05300
C921        C  0.41983272  0.64872434  0.60996769    -0.32300
C922        C  0.44139793  0.65034843  0.64385087     0.36800
H923        H  0.47672370  0.73443666  0.67254982     0.17200
O924        O  0.43802680  0.73760637  0.61091673    -0.59800
H925        H  0.40407842  0.62454970  0.59294667     0.17200
O926        O  0.44209638  0.62143697  0.65468765    -0.59900
H927        H  0.42123743  0.60693004  0.67214338     0.44200
H928        H  0.45699747  0.75136331  0.59006244     0.44100
C929        C  0.42357326  0.68611532  0.40162699    -0.04900
C930        C  0.44228373  0.66990836  0.40653350    -0.32400
C931        C  0.46313271  0.67066995  0.37193500     0.36900
C932        C  0.46562873  0.68783205  0.33146439    -0.05300
C933        C  0.44772845  0.70481854  0.32692183    -0.32300
C934        C  0.42716858  0.70443284  0.36171695     0.36800
H935        H  0.44022289  0.65593946  0.43700846     0.17200
O936        O  0.47987037  0.65337184  0.37734830    -0.59800
H937        H  0.44910749  0.71776927  0.29574696     0.17200
O938        O  0.40907798  0.72018998  0.35511381    -0.59900
H939        H  0.42436377  0.74435268  0.36423095     0.44200
H940        H  0.46480390  0.63033490  0.36436179     0.44100
C941        C  0.26624411  0.58380144  0.59712432    -0.04900
C942        C  0.23933448  0.58536093  0.61595836    -0.32400
C943        C  0.22030129  0.56356740  0.65108943     0.36900
C944        C  0.22789785  0.53953545  0.66836859    -0.05300
C945        C  0.25456916  0.53758048  0.64950846    -0.32300
C946        C  0.27361410  0.55935780  0.61400640     0.36800
H947        H  0.23281838  0.60350290  0.60329968     0.17200
O948        O  0.19364087  0.56532322  0.66771987    -0.59800
H949        H  0.26103568  0.51959484  0.66284756     0.17200
O950        O  0.30026571  0.55755928  0.59753792    -0.59900
H951        H  0.29030004  0.53839617  0.57568965     0.44200
H952        H  0.20376222  0.58595835  0.68713536     0.44100
C953        C  0.22936166  0.53666241  0.33082884    -0.04900
C954        C  0.21472231  0.53623001  0.37208660    -0.32400
C955        C  0.23424174  0.55841793  0.40666890     0.36900
C956        C  0.26918400  0.58100747  0.40055940    -0.05300
C957        C  0.28394635  0.58049920  0.35962109    -0.32300
C958        C  0.26420254  0.55886564  0.32470069     0.36800
H959        H  0.18786423  0.51950626  0.37691100     0.17200
O960        O  0.21894118  0.55756210  0.44648317    -0.59800
H961        H  0.31062436  0.59780554  0.35407184     0.17200
O962        O  0.27889031  0.56043437  0.28407540    -0.59900
H963        H  0.28752560  0.54464115  0.28692045     0.44200
H964        H  0.20849899  0.57155280  0.44124057     0.44100
O965        O  0.82075329  0.11593861  0.43967023    -0.84800
O966        O  0.88776254  0.15656281  0.46339918    -0.81900
C967        C  0.89941462  0.18214011  0.43734326     0.98600
O968        O  0.89080007  0.20407614  0.44208857    -0.81900
O969        O  0.85076240  0.23045171  0.46298435    -0.84500
C970        C  0.82642463  0.21641376  0.43563700     1.03200
O971        O  0.80427483  0.18507590  0.43980800    -0.77300
O972        O  0.77634798  0.11670917  0.46264607    -0.77500
C973        C  0.78995706  0.10593303  0.43583316     1.03100
O974        O  0.80282595  0.10090946  0.53345741    -0.84800
O975        O  0.86841918  0.14636724  0.55587447    -0.81900
C976        C  0.89514636  0.17475137  0.56200289     0.98700
O977        O  0.90262707  0.19997813  0.53654450    -0.81900
O978        O  0.85813153  0.22088396  0.55653029    -0.84500
C979        C  0.83044569  0.21959978  0.56069272     1.03100
O980        O  0.80661495  0.20199388  0.53364132    -0.77300
O981        O  0.78557562  0.13520839  0.55545608    -0.77500
C982        C  0.78616807  0.10799731  0.56043347     1.03100
Cr983      Cr  0.84440254  0.13273971  0.49798942     1.93700
Cr984      Cr  0.87285190  0.21045856  0.49941306     1.93200
Cr985      Cr  0.79649165  0.16036814  0.49783014     1.39100
O986        O  0.83797479  0.16789708  0.49848397    -1.22600
N987        N  0.61240192  0.11192429  0.06819965    -0.36100
N988        N  0.64587363  0.09013533  0.00450416    -0.56600
N989        N  0.61504438  0.10638285  0.93139507    -0.36100
N990        N  0.58201880  0.12885422  0.99500335    -0.56600
C991        C  0.62956820  0.10385921  0.09747852     0.27500
C992        C  0.59694206  0.12508234  0.09236271     0.27500
C993        C  0.62548719  0.08715714  0.90994651     0.27500
C994        C  0.59209361  0.10764403  0.90443272     0.27500
C995        C  0.65929763  0.08648430  0.04288781     0.36100
C996        C  0.66164469  0.08486191  0.96998780     0.36100
C997        C  0.57015848  0.13915472  0.02926593     0.36100
C998        C  0.57122380  0.13574208  0.95652736     0.36100
C999        C  0.62519140  0.11225256  0.14068945    -0.21400
C1000       C  0.60476190  0.12564870  0.13749340    -0.21400
C1001       C  0.60837730  0.07562682  0.86954248    -0.21400
C1002       C  0.58821726  0.08930500  0.86548948    -0.21400
C1003       C  0.68402465  0.07908013  0.03259020    -0.22400
C1004       C  0.68628904  0.07923996  0.98663923    -0.22400
C1005       C  0.55147918  0.15255627  0.01241722    -0.22400
C1006       C  0.55236036  0.15064316  0.96638300    -0.22400
C1007       C  0.64909085  0.08898044  0.08699089    -0.17800
C1008       C  0.57568210  0.13642829  0.07553824    -0.17800
C1009       C  0.57542942  0.12591164  0.91298434    -0.17800
C1010       C  0.65137110  0.08122614  0.92435715    -0.17800
H1011       H  0.63589588  0.10934167  0.17145778     0.15100
H1012       H  0.59674857  0.13490715  0.16545244     0.15100
H1013       H  0.61046444  0.05935790  0.84492339     0.15100
H1014       H  0.57245610  0.08583924  0.83688095     0.15100
H1015       H  0.69925620  0.07427730  0.05535529     0.13400
H1016       H  0.70360317  0.07470875  0.96794407     0.13400
H1017       H  0.53843119  0.16252771  0.03125472     0.13400
H1018       H  0.53962833  0.15833753  0.94297167     0.13400
H1019       H  0.60953889  0.10645295  0.03428570     0.26700
H1020       H  0.62576498  0.12108320  0.96006563     0.26700
N1021       N  0.86992193  0.49710366  0.93040882    -0.36100
N1022       N  0.89484801  0.04940767  0.99898503    -0.56600
N1023       N  0.86894699  0.49821006  0.06729601    -0.36100
N1024       N  0.84429516  0.44562453  0.99881334    -0.56600
C1025       C  0.89488321  0.02501787  0.90947049     0.27500
C1026       C  0.86609494  0.46916837  0.90891124     0.27500
C1027       C  0.89299621  0.02654690  0.08853846     0.27500
C1028       C  0.86676766  0.47083487  0.08820783     0.27500
C1029       C  0.89760582  0.06770144  0.96204760     0.36100
C1030       C  0.89587811  0.06814971  0.03459961     0.36100
C1031       C  0.82733684  0.42660873  0.96279104     0.36100
C1032       C  0.82802174  0.42714720  0.03552311     0.36100
C1033       C  0.90769000  0.01472865  0.87479775    -0.21400
C1034       C  0.88949169  0.47938694  0.87448110    -0.21400
C1035       C  0.90713184  0.01717144  0.12248045    -0.21400
C1036       C  0.89052630  0.48185480  0.12224842    -0.21400
C1037       C  0.89888702  0.09776048  0.97393088    -0.22400
C1038       C  0.89769556  0.09801424  0.02020937    -0.22400
C1039       C  0.79915527  0.39628864  0.97666707    -0.22400
C1040       C  0.79972137  0.39654036  0.02296836    -0.22400
C1041       C  0.90405654  0.05918808  0.91929516    -0.17800
C1042       C  0.84039746  0.43509073  0.91870041    -0.17800
C1043       C  0.84161899  0.43651119  0.07912846    -0.17800
C1044       C  0.90056050  0.06018519  0.07876211    -0.17800
H1045       H  0.92784008  0.03095181  0.85189705     0.15100
H1046       H  0.89293255  0.46312997  0.85136587     0.15100
H1047       H  0.92708204  0.03397129  0.14522615     0.15100
H1048       H  0.89502304  0.46608179  0.14496685     0.15100
H1049       H  0.90190520  0.11798826  0.95174802     0.13400
H1050       H  0.89955484  0.11848363  0.04080421     0.13400
H1051       H  0.78081032  0.37566300  0.95576177     0.13400
H1052       H  0.78195954  0.37618072  0.04475967     0.13400
H1053       H  0.85378659  0.49713576  0.95481552     0.26700
H1054       H  0.85222388  0.49743084  0.04318732     0.26700
N1055       N  0.00606572  0.39484480  0.06611011    -0.36100
N1056       N  0.95136378  0.37256564  0.00071326    -0.56600
N1057       N  0.99921889  0.38524649  0.92931724    -0.36100
N1058       N  0.55412217  0.40973893  0.99469262    -0.56600
C1059       C  0.98179522  0.39472480  0.09161655     0.27500
C1060       C  0.53572131  0.41421196  0.08792299     0.27500
C1061       C  0.97124835  0.37452524  0.90407352     0.27500
C1062       C  0.52552699  0.39610760  0.90079231     0.27500
C1063       C  0.93316340  0.36627875  0.03870081     0.36100
C1064       C  0.92936600  0.36093442  0.96604527     0.36100
C1065       C  0.57436332  0.41439240  0.02999587     0.36100
C1066       C  0.57147380  0.41195655  0.95711215     0.36100
C1067       C  0.99619782  0.41406117  0.13000736    -0.21400
C1068       C  0.53015779  0.42700239  0.12711359    -0.21400
C1069       C  0.97985291  0.37730053  0.85891927    -0.21400
C1070       C  0.51393851  0.39107595  0.85688762    -0.21400
C1071       C  0.89931533  0.35114814  0.02810210    -0.22400
C1072       C  0.89694376  0.34796356  0.98210307    -0.22400
C1073       C  0.60445410  0.41849370  0.01473501    -0.22400
C1074       C  0.60305124  0.41806416  0.96868314    -0.22400
C1075       C  0.94680438  0.37610962  0.08248392    -0.17800
C1076       C  0.56737075  0.41898431  0.07496966    -0.17800
C1077       C  0.55981264  0.41023524  0.91261970    -0.17800
C1078       C  0.93811930  0.36251858  0.92004024    -0.17800
H1079       H  0.98385257  0.41877583  0.15740829     0.15100
H1080       H  0.54859114  0.44360809  0.15165344     0.15100
H1081       H  0.96342735  0.37025277  0.83006573     0.15100
H1082       H  0.52845114  0.39639419  0.82632369     0.15100
H1083       H  0.87856461  0.34392058  0.05098382     0.13400
H1084       H  0.87396911  0.33741839  0.96275907     0.13400
H1085       H  0.62576192  0.42248163  0.03442956     0.13400
H1086       H  0.62314348  0.42169493  0.94667111     0.13400
H1087       H  0.00195528  0.37905543  0.03866293     0.26700
H1088       H  0.00038519  0.38517099  0.96386043     0.26700
C1089       C  0.51817066  0.19665267  0.29179122     0.02800
C1090       C  0.98328784  0.18454490  0.29188070     0.02800
C1091       C  0.96373674  0.16651986  0.25442156    -0.17700
C1092       C  0.97763053  0.15892803  0.21746482     0.02800
C1093       C  0.51248479  0.17024199  0.21800279     0.02800
C1094       C  0.53227334  0.18946587  0.25469546    -0.17700
H1095       H  0.55891722  0.19834866  0.25480289     0.04800
H1096       H  0.93703760  0.15736153  0.25470829     0.04800
C1097       C  0.82263539  0.30277959  0.29564648     0.02800
C1098       C  0.80109636  0.31606438  0.29556085     0.02800
C1099       C  0.80078004  0.33461365  0.25822127    -0.17700
C1100       C  0.82357868  0.34307727  0.22267371     0.02800
C1101       C  0.84825883  0.33351892  0.22548843     0.02800
C1102       C  0.84627357  0.31199762  0.26088066    -0.17700
H1103       H  0.86416081  0.30346228  0.26246509     0.04800
H1104       H  0.78311867  0.34347283  0.25763773     0.04800
C1105       C  0.98255316  0.18163080  0.70495614     0.02800
C1106       C  0.51715808  0.19366329  0.70122212     0.02800
C1107       C  0.53286966  0.18478750  0.73445760    -0.17700
C1108       C  0.51482943  0.16455560  0.77182857     0.02800
C1109       C  0.98042235  0.15455559  0.77682652     0.02800
C1110       C  0.96516115  0.16384631  0.74358623    -0.17700
H1111       H  0.93875606  0.15562786  0.74659033     0.04800
H1112       H  0.55915838  0.19287663  0.73036827     0.04800
C1113       C  0.81766340  0.29804400  0.70465390     0.02800
C1114       C  0.79464604  0.30967900  0.70581575     0.02800
C1115       C  0.79403748  0.32796977  0.74344273    -0.17700
C1116       C  0.81638581  0.33595510  0.77949199     0.02800
C1117       C  0.83977027  0.32470004  0.77802583     0.02800
C1118       C  0.83936309  0.30510347  0.74139545    -0.17700
H1119       H  0.85702599  0.29624981  0.74079083     0.04800
H1120       H  0.77679754  0.33735005  0.74382001     0.04800
C1121       C  0.68834166  0.48169635  0.70417670     0.02800
C1122       C  0.70849372  0.01775368  0.70722114     0.02800
C1123       C  0.70768420  0.03414922  0.74689048    -0.17700
C1124       C  0.68474527  0.01619246  0.78185163     0.02800
C1125       C  0.66214986  0.48023435  0.77640840     0.02800
C1126       C  0.66525823  0.46355463  0.73858048    -0.17700
H1127       H  0.64830026  0.43619753  0.73460993     0.04800
H1128       H  0.72452725  0.06160393  0.74969007     0.04800
C1129       C  0.69050653  0.48094250  0.28996299     0.02800
C1130       C  0.70769797  0.01706223  0.29253060     0.02800
C1131       C  0.70250650  0.03554503  0.25915961    -0.17700
C1132       C  0.68113058  0.01913552  0.22254044     0.02800
C1133       C  0.66631755  0.48305010  0.21734190     0.02800
C1134       C  0.67128471  0.46467189  0.25147135    -0.17700
H1135       H  0.65929820  0.43708187  0.24882643     0.04800
H1136       H  0.71390663  0.06299521  0.26320911     0.04800
O1137       O  0.61556102  0.31105071  0.55486181    -0.84800
O1138       O  0.65630975  0.37998372  0.53346323    -0.81900
C1139       C  0.68096957  0.39195670  0.56031895     0.98600
O1140       O  0.70246397  0.38296537  0.55680172    -0.81900
O1141       O  0.72923879  0.34248591  0.53608162    -0.84500
C1142       C  0.71513390  0.31648259  0.56146630     1.03200
O1143       O  0.68435705  0.29437489  0.55660281    -0.77300
O1144       O  0.61770235  0.26638821  0.53282770    -0.77500
C1145       C  0.60632124  0.27981367  0.55917462     1.03100
O1146       O  0.60345703  0.29457696  0.46053085    -0.84800
O1147       O  0.64899079  0.36184837  0.44019858    -0.81900
C1148       C  0.67677659  0.38946986  0.43553715     0.98700
O1149       O  0.70085814  0.39670757  0.46216038    -0.81900
O1150       O  0.72185699  0.35156558  0.44283593    -0.84500
C1151       C  0.72118171  0.32367795  0.43844894     1.03100
O1152       O  0.70255268  0.29840142  0.46349532    -0.77300
O1153       O  0.63696196  0.27630989  0.44025078    -0.77500
C1154       C  0.61025132  0.27678953  0.43485522     1.03100
Cr1155     Cr  0.63387697  0.33632300  0.49744959     1.93700
Cr1156     Cr  0.71016343  0.36553319  0.49949410     1.93200
Cr1157     Cr  0.66102424  0.28739712  0.49834069     1.39100
O1158       O  0.66838348  0.32976049  0.49839326    -1.22600
C1159       C  0.68843096  0.45903023  0.32848579    -0.04900
C1160       C  0.65654777  0.43578876  0.34612039    -0.32400
C1161       C  0.65257772  0.41348840  0.38103593     0.36900
C1162       C  0.68083183  0.41387594  0.39931309    -0.05300
C1163       C  0.71296318  0.43766604  0.38229245    -0.32300
C1164       C  0.71684321  0.45985731  0.34683869     0.36800
H1165       H  0.63443109  0.43491825  0.33260264     0.17200
O1166       O  0.62080900  0.39148119  0.39709914    -0.59800
H1167       H  0.73505674  0.43845150  0.39568618     0.17200
O1168       O  0.74833926  0.48159163  0.32982890    -0.59900
H1169       H  0.75013965  0.46981557  0.30292424     0.44200
H1170       H  0.61800449  0.40361763  0.42281744     0.44100
C1171       C  0.68467123  0.41697722  0.59560460    -0.04900
C1172       C  0.70307599  0.42063819  0.63488066    -0.32400
C1173       C  0.70531288  0.44256032  0.66960546     0.36900
C1174       C  0.68959346  0.46185399  0.66532614    -0.05300
C1175       C  0.67212160  0.45919955  0.62569890    -0.32300
C1176       C  0.66937636  0.43686846  0.59115390     0.36800
H1177       H  0.71495623  0.40567601  0.63932800     0.17200
O1178       O  0.72198030  0.44410347  0.70838554    -0.59800
H1179       H  0.65976228  0.47377193  0.62207748     0.17200
O1180       O  0.65207552  0.43510101  0.55291159    -0.59900
H1181       H  0.62804108  0.41911556  0.56026256     0.44200
H1182       H  0.74552867  0.46290173  0.70347815     0.44100
C1183       C  0.77358690  0.30695479  0.66667313    -0.04900
C1184       C  0.78921900  0.32433278  0.62684893    -0.32400
C1185       C  0.77041053  0.32691131  0.59196799     0.36900
C1186       C  0.73523527  0.31191682  0.59651153    -0.05300
C1187       C  0.71943493  0.29305144  0.63552142    -0.32300
C1188       C  0.73839152  0.29091647  0.67067050     0.36800
H1189       H  0.81631199  0.33707954  0.62348132     0.17200
O1190       O  0.78683461  0.34470293  0.55392807    -0.59800
H1191       H  0.69245570  0.28100948  0.63956862     0.17200
O1192       O  0.72239754  0.27326269  0.70899346    -0.59900
H1193       H  0.71689878  0.28854181  0.72580216     0.44200
H1194       H  0.78500477  0.32711698  0.53257787     0.44100
C1195       C  0.53745185  0.21519391  0.66289785    -0.04900
C1196       C  0.55088739  0.25070267  0.66417117    -0.32400
C1197       C  0.57265942  0.27209479  0.63027023     0.36900
C1198       C  0.58159765  0.25801174  0.59442597    -0.05300
C1199       C  0.56720255  0.22216662  0.59287612    -0.32300
C1200       C  0.54530473  0.20090228  0.62661234     0.36800
H1201       H  0.54506399  0.26195956  0.69216444     0.17200
O1202       O  0.58621602  0.30679615  0.63377065    -0.59800
H1203       H  0.57320531  0.21046781  0.56562934     0.17200
O1204       O  0.53243893  0.16624809  0.62449350    -0.59900
H1205       H  0.51002990  0.15667378  0.61026444     0.44200
H1206       H  0.56930099  0.31119986  0.62014013     0.44100
C1207       C  0.78221511  0.31580446  0.33578663    -0.04900
C1208       C  0.79282876  0.34714297  0.35723654    -0.32400
C1209       C  0.77352519  0.34983638  0.39113197     0.36900
C1210       C  0.74292215  0.32076774  0.40443209    -0.05300
C1211       C  0.73306602  0.28891614  0.38443226    -0.32300
C1212       C  0.75235444  0.28639086  0.34993648     0.36800
H1213       H  0.81594306  0.36992146  0.34678286     0.17200
O1214       O  0.78518435  0.38091353  0.41167539    -0.59800
H1215       H  0.70975381  0.26619846  0.39439279     0.17200
O1216       O  0.74131136  0.25543659  0.32942925    -0.59900
H1217       H  0.72807648  0.25523040  0.30315912     0.44200
H1218       H  0.77931682  0.39412693  0.39100870     0.44100
C1219       C  0.54061934  0.21676454  0.32969706    -0.04900
C1220       C  0.55905787  0.20463373  0.35214532    -0.32400
C1221       C  0.58151318  0.22373011  0.38664535     0.36900
C1222       C  0.58616890  0.25578167  0.39902338    -0.05300
C1223       C  0.56736825  0.26769439  0.37694573    -0.32300
C1224       C  0.54506869  0.24866070  0.34221303     0.36800
H1225       H  0.55587050  0.18011613  0.34296308     0.17200
O1226       O  0.59842558  0.21057242  0.40843990    -0.59800
H1227       H  0.57062924  0.29228789  0.38585400     0.17200
O1228       O  0.52838315  0.26185828  0.31995254    -0.59900
H1229       H  0.54292585  0.27449460  0.29397526     0.44200
H1230       H  0.58445587  0.19854188  0.43510996     0.44100
C1231       C  0.86593103  0.33441721  0.81320512    -0.04900
C1232       C  0.86609032  0.30886852  0.83951563    -0.32400
C1233       C  0.88865320  0.31765604  0.87541043     0.36900
C1234       C  0.91143908  0.35234945  0.88539237    -0.05300
C1235       C  0.91179654  0.37781437  0.85843750    -0.32300
C1236       C  0.88970844  0.36908487  0.82206580     0.36800
H1237       H  0.84808530  0.28209856  0.83286756     0.17200
O1238       O  0.88817058  0.29223285  0.90067533    -0.59800
H1239       H  0.93013405  0.40455487  0.86475228     0.17200
O1240       O  0.89231095  0.39433876  0.79411004    -0.59900
H1241       H  0.88878895  0.40997022  0.81337270     0.44200
H1242       H  0.90588452  0.28883939  0.88754423     0.44100
C1243       C  0.58502920  0.42667823  0.87592877    -0.04900
C1244       C  0.60431591  0.41286457  0.86135272    -0.32400
C1245       C  0.62904155  0.42955929  0.82820490     0.36900
C1246       C  0.63372751  0.45975632  0.80791543    -0.05300
C1247       C  0.61214015  0.47156080  0.81968890    -0.32300
C1248       C  0.58899751  0.45616579  0.85459401     0.36800
H1249       H  0.60096540  0.38975874  0.87676615     0.17200
O1250       O  0.65012150  0.41769334  0.81829696    -0.59800
H1251       H  0.61462619  0.99407930  0.80355326     0.17200
O1252       O  0.57041118  0.47023440  0.86794290    -0.59900
H1253       H  0.58414250  0.98717237  0.89142374     0.44200
H1254       H  0.63645890  0.39675774  0.80005696     0.44100
C1255       C  0.59489533  0.43230606  0.10958798    -0.04900
C1256       C  0.62628704  0.46192433  0.10106208    -0.32400
C1257       C  0.65124686  0.47599425  0.13416313     0.36900
C1258       C  0.64365403  0.46360792  0.17869051    -0.05300
C1259       C  0.61293057  0.43302970  0.18673440    -0.32300
C1260       C  0.58927209  0.41673814  0.15227175     0.36800
H1261       H  0.63154770  0.47444377  0.06863566     0.17200
O1262       O  0.68254805  0.00274038  0.12295177    -0.59800
H1263       H  0.60663985  0.42207958  0.22013977     0.17200
O1264       O  0.56046939  0.38581070  0.16056494    -0.59900
H1265       H  0.54842110  0.39007100  0.18483106     0.44200
H1266       H  0.69594184  0.99203963  0.11573165     0.44100
C1267       C  0.92307569  0.36598971  0.12104214    -0.04900
C1268       C  0.91830410  0.39025185  0.14337592    -0.32400
C1269       C  0.89620842  0.38057334  0.17992542     0.36900
C1270       C  0.87622593  0.34564787  0.19216912    -0.05300
C1271       C  0.88186661  0.32166336  0.17057517    -0.32300
C1272       C  0.90530793  0.33169642  0.13565597     0.36800
H1273       H  0.93213279  0.41682920  0.13284909     0.17200
O1274       O  0.89394573  0.40535610  0.20298075    -0.59800
H1275       H  0.86735031  0.29485525  0.17991454     0.17200
O1276       O  0.91079938  0.30781708  0.11589754    -0.59900
H1277       H  0.89284813  0.29636298  0.09299846     0.44200
H1278       H  0.91100363  0.41286467  0.22715723     0.44100
C1279       C  0.91723572  0.08773108  0.11353155    -0.04900
C1280       C  0.94570296  0.11952976  0.10229546    -0.32400
C1281       C  0.96316308  0.14454453  0.13503440     0.36900
C1282       C  0.95474076  0.13679056  0.18075612    -0.05300
C1283       C  0.92509067  0.10599527  0.19176641    -0.32300
C1284       C  0.90593820  0.08197303  0.15849246     0.36800
H1285       H  0.95493431  0.12495884  0.06808903     0.17200
O1286       O  0.48912288  0.17608634  0.12204649    -0.59800
H1287       H  0.91728518  0.09988939  0.22649513     0.17200
O1288       O  0.87616732  0.05296942  0.17003517    -0.59900
H1289       H  0.88212179  0.04033242  0.19161032     0.44200
H1290       H  0.47936145  0.19097133  0.12096792     0.44100
C1291       C  0.92201237  0.08631697  0.88457466    -0.04900
C1292       C  0.90952572  0.08003346  0.84053965    -0.32400
C1293       C  0.92818245  0.10204687  0.80554207     0.36900
C1294       C  0.95898647  0.13247765  0.81447931    -0.05300
C1295       C  0.97009811  0.14034548  0.85917183    -0.32300
C1296       C  0.95255879  0.11699045  0.89387960     0.36800
H1297       H  0.88601835  0.05676100  0.83277988     0.17200
O1298       O  0.91682313  0.09256878  0.76240080    -0.59800
H1299       H  0.49357797  0.16366823  0.86680479     0.17200
O1300       O  0.96681847  0.12295186  0.93580864    -0.59900
H1301       H  0.46770824  0.14391754  0.94697304     0.44200
H1302       H  0.92806491  0.08046004  0.75124099     0.44100
C1303       C  0.82966228  0.40774228  0.88360123    -0.04900
C1304       C  0.82573326  0.37585046  0.89471070    -0.32400
C1305       C  0.81761541  0.35067566  0.86186838     0.36900
C1306       C  0.81675330  0.35846073  0.81627034    -0.05300
C1307       C  0.81883556  0.38951935  0.80533107    -0.32300
C1308       C  0.82410646  0.41347055  0.83862828     0.36800
H1309       H  0.82931699  0.37038239  0.92895118     0.17200
O1310       O  0.80975465  0.31828035  0.87430386    -0.59800
H1311       H  0.81737526  0.39574950  0.77060872     0.17200
O1312       O  0.82488362  0.44292045  0.82648458    -0.59900
H1313       H  0.80273348  0.43929424  0.83568122     0.44200
H1314       H  0.82659632  0.32105178  0.89705719     0.44100
C1315       C  0.83170720  0.41000858  0.11497766    -0.04900
C1316       C  0.83016742  0.37899009  0.10548538    -0.32400
C1317       C  0.82406183  0.35534593  0.13958324     0.36900
C1318       C  0.82235753  0.36374863  0.18467457    -0.05300
C1319       C  0.82162531  0.39360066  0.19383128    -0.32300
C1320       C  0.82556349  0.41628377  0.15934142     0.36800
H1321       H  0.83443152  0.37330230  0.07167389     0.17200
O1322       O  0.82118627  0.32470960  0.12868161    -0.59800
H1323       H  0.81931519  0.40014001  0.22808121     0.17200
O1324       O  0.82337882  0.44455160  0.16912228    -0.59900
H1325       H  0.84186317  0.45843414  0.19056687     0.44200
H1326       H  0.79668258  0.30829784  0.12566083     0.44100
C1327       C  0.55805579  0.14561697  0.10953219    -0.04900
C1328       C  0.53180236  0.11937762  0.13469269    -0.32400
C1329       C  0.51758348  0.12703086  0.17090530     0.36900
C1330       C  0.52879189  0.16142818  0.18164283    -0.05300
C1331       C  0.55527620  0.18771327  0.15665333    -0.32300
C1332       C  0.56993444  0.17999068  0.12088691     0.36800
H1333       H  0.52306968  0.09282937  0.12700712     0.17200
O1334       O  0.49275945  0.10069677  0.19563114    -0.59800
H1335       H  0.56428154  0.21427550  0.16460584     0.17200
O1336       O  0.59593716  0.20613238  0.09737841    -0.59900
H1337       H  0.61668382  0.20942026  0.11173762     0.44200
H1338       H  0.50423870  0.09889226  0.22265359     0.44100
C1339       C  0.53223305  0.15394141  0.80464586    -0.04900
C1340       C  0.51720437  0.11943302  0.81807301    -0.32400
C1341       C  0.53057416  0.10989848  0.85362411     0.36900
C1342       C  0.56077331  0.13460217  0.87422854    -0.05300
C1343       C  0.57694072  0.16861386  0.85903523    -0.32300
C1344       C  0.56274337  0.17846670  0.82507464     0.36800
H1345       H  0.49405000  0.10002420  0.80245128     0.17200
O1346       O  0.51317934  0.07691201  0.86969366    -0.59800
H1347       H  0.60015741  0.18785709  0.87474205     0.17200
O1348       O  0.57837958  0.21237727  0.81320757    -0.59900
H1349       H  0.56700140  0.22187365  0.83103630     0.44200
H1350       H  0.51218146  0.06216145  0.84453117     0.44100
C1351       C  0.66592089  0.06783007  0.89027787    -0.04900
C1352       C  0.66669995  0.03784369  0.89870782    -0.32400
C1353       C  0.67731070  0.02341120  0.86558262     0.36900
C1354       C  0.68280944  0.03607619  0.82111526    -0.05300
C1355       C  0.68423393  0.06732673  0.81353296    -0.32300
C1356       C  0.67730102  0.08383085  0.84803628     0.36800
H1357       H  0.65872614  0.02519867  0.93099238     0.17200
O1358       O  0.68250144  0.49717113  0.87667519    -0.59800
H1359       H  0.68968491  0.07867245  0.78034972     0.17200
O1360       O  0.68113445  0.11538600  0.84013901    -0.59900
H1361       H  0.66574783  0.11216630  0.81499328     0.44200
H1362       H  0.66313691  0.48078134  0.89544934     0.44100
C1363       C  0.67329418  0.04006984  0.19199908    -0.04900
C1364       C  0.63966500  0.02882379  0.18145081    -0.32400
C1365       C  0.63182838  0.04465672  0.14738233     0.36900
C1366       C  0.65769035  0.07347880  0.12491054    -0.05300
C1367       C  0.69110355  0.08706726  0.13878109    -0.32300
C1368       C  0.69911170  0.07015106  0.17129289     0.36800
H1369       H  0.61941423  0.00645321  0.19793806     0.17200
O1370       O  0.59889032  0.03080597  0.13461981    -0.59800
H1371       H  0.71112483  0.10993925  0.12287349     0.17200
O1372       O  0.73229365  0.08236181  0.18104199    -0.59900
H1373       H  0.73882056  0.06896732  0.16179515     0.44200
H1374       H  0.58845554  0.03757438  0.15836351     0.44100
C1375       C  0.82394298  0.23777457  0.39981461    -0.04900
C1376       C  0.84108398  0.27358907  0.40537181    -0.32400
C1377       C  0.84013658  0.29484646  0.37216366     0.36900
C1378       C  0.82214972  0.28057126  0.33233948    -0.05300
C1379       C  0.80503738  0.24490962  0.32637524    -0.32300
C1380       C  0.80572051  0.22348656  0.35975569     0.36800
H1381       H  0.85535867  0.28529378  0.43567537     0.17200
O1382       O  0.85782354  0.32967821  0.37819594    -0.59800
H1383       H  0.79138239  0.23371479  0.29549909     0.17200
O1384       O  0.78911593  0.18881691  0.35238055    -0.59900
H1385       H  0.80615883  0.18445745  0.33907291     0.44200
H1386       H  0.84374862  0.33438744  0.39851805     0.44100
C1387       C  0.82021278  0.27897107  0.66565663    -0.05300
C1388       C  0.79193222  0.24831920  0.65096927    -0.32400
C1389       C  0.79475899  0.22882727  0.61661419     0.36900
C1390       C  0.82629623  0.23983436  0.59642846    -0.05300
C1391       C  0.85437998  0.27073226  0.61073943    -0.32300
C1392       C  0.85145380  0.29037180  0.64454395     0.36800
H1393       H  0.76776507  0.23902659  0.66698235     0.17200
O1394       O  0.76672842  0.19861699  0.60396036    -0.59800
H1395       H  0.87872872  0.27993750  0.59530689     0.17200
O1396       O  0.87940833  0.32075550  0.65683362    -0.59900
H1397       H  0.87844742  0.33852271  0.63875931     0.44200
H1398       H  0.76703747  0.18071669  0.62257300     0.44100
C1399       C  0.96232415  0.18139903  0.66641713    -0.04900
C1400       C  0.96131461  0.21064371  0.65460977    -0.32400
C1401       C  0.93968501  0.20905869  0.62040430     0.36900
C1402       C  0.91857412  0.17781381  0.59794014    -0.05300
C1403       C  0.91984102  0.14873079  0.60996693    -0.32300
C1404       C  0.94140700  0.15035695  0.64385032     0.36800
H1405       H  0.97671609  0.23444086  0.67256236     0.17200
O1406       O  0.93801612  0.23760610  0.61093002    -0.59800
H1407       H  0.90409108  0.12455688  0.59294212     0.17200
O1408       O  0.94211157  0.12144823  0.65468331    -0.59900
H1409       H  0.92125388  0.10693792  0.67213977     0.44200
H1410       H  0.95698473  0.25136642  0.59007430     0.44100
C1411       C  0.92357595  0.18611820  0.40162862    -0.04900
C1412       C  0.94228641  0.16991123  0.40653435    -0.32400
C1413       C  0.96313395  0.17067172  0.37193467     0.36900
C1414       C  0.96562869  0.18783289  0.33146373    -0.05300
C1415       C  0.94772856  0.20481961  0.32692191    -0.32300
C1416       C  0.92717005  0.20443498  0.36171829     0.36800
H1417       H  0.94022646  0.15594290  0.43700953     0.17200
O1418       O  0.97987130  0.15337323  0.37734702    -0.59800
H1419       H  0.94910678  0.21776981  0.29574689     0.17200
O1420       O  0.90907944  0.22019224  0.35511624    -0.59900
H1421       H  0.92436781  0.24435650  0.36422481     0.44200
H1422       H  0.96480061  0.13033347  0.36437087     0.44100
C1423       C  0.76624869  0.08380410  0.59712645    -0.04900
C1424       C  0.73933739  0.08536134  0.61595873    -0.32400
C1425       C  0.72030496  0.06356781  0.65109017     0.36900
C1426       C  0.72790384  0.03953801  0.66837102    -0.05300
C1427       C  0.75457703  0.03758550  0.64951287    -0.32300
C1428       C  0.77362147  0.05936308  0.61401082     0.36800
H1429       H  0.73281944  0.10350151  0.60329845     0.17200
O1430       O  0.69364319  0.06532163  0.66771959    -0.59800
H1431       H  0.76104551  0.01960181  0.66285367     0.17200
O1432       O  0.80027540  0.05756765  0.59754480    -0.59900
H1433       H  0.79031212  0.03840496  0.57569584     0.44200
H1434       H  0.70376321  0.08595698  0.68713464     0.44100
C1435       C  0.72936462  0.03666052  0.33083408    -0.04900
C1436       C  0.71472581  0.03622853  0.37209207    -0.32400
C1437       C  0.73424569  0.05841680  0.40667369     0.36900
C1438       C  0.76918785  0.08100628  0.40056319    -0.05300
C1439       C  0.78394982  0.08049696  0.35962506    -0.32300
C1440       C  0.76420553  0.05886300  0.32470531     0.36800
H1441       H  0.68786769  0.01950534  0.37691684     0.17200
O1442       O  0.71894556  0.05756185  0.44648799    -0.59800
H1443       H  0.81062777  0.09780318  0.35407517     0.17200
O1444       O  0.77889264  0.06043141  0.28407960    -0.59900
H1445       H  0.78752745  0.04463776  0.28692418     0.44200
H1446       H  0.70850278  0.07155191  0.44124460     0.44100
O1447       O  0.82075346  0.61593965  0.43967067    -0.84800
O1448       O  0.88776262  0.65656292  0.46340130    -0.81900
C1449       C  0.89941495  0.68214031  0.43734548     0.98600
O1450       O  0.89080048  0.70407639  0.44209099    -0.81900
O1451       O  0.85076279  0.73045181  0.46298779    -0.84500
C1452       C  0.82642487  0.71641414  0.43564068     1.03200
O1453       O  0.80427481  0.68507638  0.43981148    -0.77300
O1454       O  0.77634791  0.61670951  0.46264749    -0.77500
C1455       C  0.78995717  0.60593399  0.43583395     1.03100
O1456       O  0.80282489  0.60090811  0.53345701    -0.84800
O1457       O  0.86841793  0.64636582  0.55587641    -0.81900
C1458       C  0.89514475  0.67475006  0.56200624     0.98700
O1459       O  0.90262640  0.69997682  0.53654737    -0.81900
O1460       O  0.85813155  0.72088276  0.55653317    -0.84500
C1461       C  0.83044600  0.71959908  0.56069555     1.03100
O1462       O  0.80661500  0.70199317  0.53364460    -0.77300
O1463       O  0.78557526  0.63520715  0.55545768    -0.77500
C1464       C  0.78616656  0.60799532  0.56043314     1.03100
Cr1465     Cr  0.84440213  0.63273927  0.49799052     1.93700
Cr1466     Cr  0.87285194  0.71045805  0.49941583     1.93200
Cr1467     Cr  0.79649153  0.66036787  0.49783264     1.39100
O1468       O  0.83797461  0.66789671  0.49848604    -1.22600
N1469       N  0.61239884  0.61192081  0.06820100    -0.36100
N1470       N  0.64587274  0.59013500  0.00450594    -0.56600
N1471       N  0.61504301  0.60638207  0.93139608    -0.36100
N1472       N  0.58201634  0.62885153  0.99500393    -0.56600
C1473       C  0.62956761  0.60385890  0.09747960     0.27500
C1474       C  0.59694114  0.62508136  0.09236322     0.27500
C1475       C  0.62548779  0.58715832  0.90994682     0.27500
C1476       C  0.59209294  0.60764382  0.90443280     0.27500
C1477       C  0.65929608  0.58648297  0.04288960     0.36100
C1478       C  0.66164420  0.58486208  0.96998968     0.36100
C1479       C  0.57015549  0.63915126  0.02926664     0.36100
C1480       C  0.57122084  0.63573920  0.95652821     0.36100
C1481       C  0.62519411  0.61225623  0.14068967    -0.21400
C1482       C  0.60476437  0.62565203  0.13749326    -0.21400
C1483       C  0.60837996  0.57562994  0.86954103    -0.21400
C1484       C  0.58821892  0.58930707  0.86548819    -0.21400
C1485       C  0.68402318  0.57907891  0.03259217    -0.22400
C1486       C  0.68628829  0.57923978  0.98664130    -0.22400
C1487       C  0.55147556  0.65255224  0.01241839    -0.22400
C1488       C  0.55235676  0.65063950  0.96638422    -0.22400
C1489       C  0.64908942  0.58897930  0.08699254    -0.17800
C1490       C  0.57568002  0.63642564  0.07553869    -0.17800
C1491       C  0.57542716  0.62590984  0.91298495    -0.17800
C1492       C  0.65137144  0.58122714  0.92435872    -0.17800
H1493       H  0.63590102  0.60934827  0.17145754     0.15100
H1494       H  0.59675318  0.63491318  0.16545157     0.15100
H1495       H  0.61046888  0.55936278  0.84492086     0.15100
H1496       H  0.57245849  0.58584210  0.83687903     0.15100
H1497       H  0.69925446  0.57427571  0.05535723     0.13400
H1498       H  0.70360277  0.57470903  0.96794629     0.13400
H1499       H  0.53842739  0.66252335  0.03125615     0.13400
H1500       H  0.53962457  0.65833383  0.94297312     0.13400
H1501       H  0.60953125  0.60644416  0.03428839     0.26700
H1502       H  0.62576184  0.62108075  0.96006834     0.26700
N1503       N  0.86991904  0.99710157  0.93040867    -0.36100
N1504       N  0.89485135  0.54940921  0.99898663    -0.56600
N1505       N  0.86894365  0.99820898  0.06729633    -0.36100
N1506       N  0.84429232  0.94562291  0.99881494    -0.56600
C1507       C  0.89488660  0.52502011  0.90947165     0.27500
C1508       C  0.86609296  0.96916613  0.90891262     0.27500
C1509       C  0.89299992  0.52654762  0.08853826     0.27500
C1510       C  0.86676402  0.97083407  0.08820962     0.27500
C1511       C  0.89760878  0.56770304  0.96204959     0.36100
C1512       C  0.89588055  0.56815055  0.03460144     0.36100
C1513       C  0.82733480  0.92660648  0.96279270     0.36100
C1514       C  0.82801913  0.92714549  0.03552478     0.36100
C1515       C  0.90769288  0.51473108  0.87479800    -0.21400
C1516       C  0.88948984  0.97938452  0.87448261    -0.21400
C1517       C  0.90713638  0.51717166  0.12247859    -0.21400
C1518       C  0.89052198  0.98185464  0.12225114    -0.21400
C1519       C  0.89888875  0.59776143  0.97393322    -0.22400
C1520       C  0.89769677  0.59801462  0.02021172    -0.22400
C1521       C  0.79915382  0.89628586  0.97666878    -0.22400
C1522       C  0.79971961  0.89653791  0.02297009    -0.22400
C1523       C  0.90406012  0.55919026  0.91929731    -0.17800
C1524       C  0.84039583  0.93508844  0.91870227    -0.17800
C1525       C  0.84161619  0.93650999  0.07913016    -0.17800
C1526       C  0.90056347  0.56018584  0.07876348    -0.17800
H1527       H  0.92784313  0.53095439  0.85189760     0.15100
H1528       H  0.89293136  0.96312740  0.85136845     0.15100
H1529       H  0.92708705  0.53397117  0.14522393     0.15100
H1530       H  0.89501862  0.96608211  0.14497060     0.15100
H1531       H  0.90190636  0.61798910  0.95175062     0.13400
H1532       H  0.89955502  0.61848339  0.04080689     0.13400
H1533       H  0.78080956  0.87565964  0.95576356     0.13400
H1534       H  0.78195830  0.87617799  0.04476149     0.13400
H1535       H  0.85378347  0.99713369  0.95481499     0.26700
H1536       H  0.85222115  0.99742942  0.04318639     0.26700
N1537       N  0.00606711  0.89484440  0.06611055    -0.36100
N1538       N  0.95136512  0.87256398  0.00071396    -0.56600
N1539       N  0.99921992  0.88524349  0.92931835    -0.36100
N1540       N  0.55412210  0.90974021  0.99468957    -0.56600
C1541       C  0.98179662  0.89472482  0.09161632     0.27500
C1542       C  0.53572175  0.91421191  0.08792156     0.27500
C1543       C  0.97124971  0.87452381  0.90407448     0.27500
C1544       C  0.52552587  0.89610837  0.90078966     0.27500
C1545       C  0.93316475  0.86627718  0.03870148     0.36100
C1546       C  0.92936733  0.86093287  0.96604604     0.36100
C1547       C  0.57436383  0.91439426  0.02999242     0.36100
C1548       C  0.57147337  0.91195768  0.95710867     0.36100
C1549       C  0.99619916  0.91406303  0.13000580    -0.21400
C1550       C  0.53015803  0.92700081  0.12711344    -0.21400
C1551       C  0.97985460  0.87730100  0.85892020    -0.21400
C1552       C  0.51393689  0.89107683  0.85688530    -0.21400
C1553       C  0.89931671  0.85114685  0.02810288    -0.22400
C1554       C  0.89694512  0.84796236  0.98210381    -0.22400
C1555       C  0.60445463  0.91849599  0.01473083    -0.22400
C1556       C  0.60305110  0.91806584  0.96867901    -0.22400
C1557       C  0.94680587  0.87610844  0.08248434    -0.17800
C1558       C  0.56737161  0.91898571  0.07496667    -0.17800
C1559       C  0.55981167  0.91023566  0.91261631    -0.17800
C1560       C  0.93812068  0.86251712  0.92004110    -0.17800
H1561       H  0.98385393  0.91877847  0.15740598     0.15100
H1562       H  0.54859137  0.94360596  0.15165366     0.15100
H1563       H  0.96342935  0.87025488  0.83006654     0.15100
H1564       H  0.52844917  0.89639518  0.82632105     0.15100
H1565       H  0.87856611  0.84391966  0.05098468     0.13400
H1566       H  0.87397054  0.83741755  0.96275973     0.13400
H1567       H  0.62576280  0.92248433  0.03442488     0.13400
H1568       H  0.62314311  0.92169658  0.94666655     0.13400
H1569       H  0.00195675  0.87905380  0.03866481     0.26700
H1570       H  0.00038572  0.88516523  0.96386150     0.26700
C1571       C  0.51817133  0.69665255  0.29178942     0.02800
C1572       C  0.98328787  0.68454370  0.29188273     0.02800
C1573       C  0.96373735  0.66651919  0.25442318    -0.17700
C1574       C  0.97763182  0.65892817  0.21746647     0.02800
C1575       C  0.51248466  0.67024131  0.21800142     0.02800
C1576       C  0.53227355  0.68946535  0.25469369    -0.17700
H1577       H  0.55891739  0.69834791  0.25480081     0.04800
H1578       H  0.93703813  0.65736055  0.25470952     0.04800
C1579       C  0.82263823  0.80277924  0.29564781     0.02800
C1580       C  0.80109876  0.81606336  0.29556108     0.02800
C1581       C  0.80078284  0.83461276  0.25822155    -0.17700
C1582       C  0.82358217  0.84307697  0.22267472     0.02800
C1583       C  0.84826238  0.83351864  0.22549023     0.02800
C1584       C  0.84627692  0.81199746  0.26088275    -0.17700
H1585       H  0.86416432  0.80346235  0.26246800     0.04800
H1586       H  0.78312111  0.84347147  0.25763751     0.04800
C1587       C  0.98255299  0.68163270  0.70495993     0.02800
C1588       C  0.51715786  0.69366243  0.70122042     0.02800
C1589       C  0.53286874  0.68478704  0.73445761    -0.17700
C1590       C  0.51482732  0.66455394  0.77182752     0.02800
C1591       C  0.98042413  0.65455778  0.77682944     0.02800
C1592       C  0.96516233  0.66384937  0.74359122    -0.17700
H1593       H  0.93875755  0.65563174  0.74659751     0.04800
H1594       H  0.55915786  0.69287722  0.73037023     0.04800
C1595       C  0.81766671  0.79804660  0.70465339     0.02800
C1596       C  0.79464906  0.80968123  0.70581538     0.02800
C1597       C  0.79403948  0.82797048  0.74344331    -0.17700
C1598       C  0.81638737  0.83595505  0.77949299     0.02800
C1599       C  0.83977242  0.82470078  0.77802635     0.02800
C1600       C  0.83936591  0.80510526  0.74139528    -0.17700
H1601       H  0.85702876  0.79625155  0.74079065     0.04800
H1602       H  0.77679909  0.83735020  0.74382109     0.04800
C1603       C  0.68834641  0.98169649  0.70417593     0.02800
C1604       C  0.70849077  0.51775335  0.70722087     0.02800
C1605       C  0.70768332  0.53415024  0.74689017    -0.17700
C1606       C  0.68474535  0.51619470  0.78185287     0.02800
C1607       C  0.66215126  0.98023188  0.77640629     0.02800
C1608       C  0.66526240  0.96355329  0.73857892    -0.17700
H1609       H  0.64830560  0.93619608  0.73460752     0.04800
H1610       H  0.72452745  0.56160484  0.74968868     0.04800
C1611       C  0.69050886  0.98094243  0.28995906     0.02800
C1612       C  0.70769614  0.51706243  0.29253355     0.02800
C1613       C  0.70250449  0.53554482  0.25916218    -0.17700
C1614       C  0.68112806  0.51913486  0.22254372     0.02800
C1615       C  0.66632071  0.98305086  0.21733737     0.02800
C1616       C  0.67128781  0.96467230  0.25146666    -0.17700
H1617       H  0.65930173  0.93708236  0.24882115     0.04800
H1618       H  0.71390503  0.56299514  0.26321071     0.04800
O1619       O  0.61556246  0.81105088  0.55486024    -0.84800
O1620       O  0.65631234  0.87998421  0.53346166    -0.81900
C1621       C  0.68097316  0.89195776  0.56031590     0.98600
O1622       O  0.70246725  0.88296610  0.55679785    -0.81900
O1623       O  0.72924069  0.84248542  0.53607858    -0.84500
C1624       C  0.71513599  0.81648271  0.56146436     1.03200
O1625       O  0.68435897  0.79437506  0.55660167    -0.77300
O1626       O  0.61770350  0.76638801  0.53282701    -0.77500
C1627       C  0.60632209  0.77981366  0.55917315     1.03100
O1628       O  0.60345866  0.79457717  0.46052893    -0.84800
O1629       O  0.64899227  0.86184867  0.44019661    -0.81900
C1630       C  0.67677833  0.88946973  0.43553421     0.98700
O1631       O  0.70086029  0.89670697  0.46215644    -0.81900
O1632       O  0.72185773  0.85156372  0.44283266    -0.84500
C1633       C  0.72118243  0.82367601  0.43844674     1.03100
O1634       O  0.70255354  0.79839995  0.46349388    -0.77300
O1635       O  0.63696287  0.77630889  0.44024998    -0.77500
C1636       C  0.61025260  0.77678916  0.43485379     1.03100
Cr1637     Cr  0.63387881  0.83632324  0.49744786     1.93700
Cr1638     Cr  0.71016532  0.86553257  0.49949063     1.93200
Cr1639     Cr  0.66102546  0.78739659  0.49833967     1.39100
O1640       O  0.66838508  0.82976020  0.49839125    -1.22600
C1641       C  0.68843295  0.95902994  0.32848194    -0.04900
C1642       C  0.65654989  0.93578977  0.34611806    -0.32400
C1643       C  0.65257977  0.91348970  0.38103421     0.36900
C1644       C  0.68083361  0.91387586  0.39930996    -0.05300
C1645       C  0.71296482  0.93766473  0.38228780    -0.32300
C1646       C  0.71684495  0.95985595  0.34683391     0.36800
H1647       H  0.63443343  0.93492022  0.33260122     0.17200
O1648       O  0.62081132  0.89148428  0.39709960    -0.59800
H1649       H  0.73505821  0.93844932  0.39568055     0.17200
O1650       O  0.74834092  0.98158928  0.32982325    -0.59900
H1651       H  0.75013881  0.96981473  0.30291516     0.44200
H1652       H  0.61800894  0.90362170  0.42281850     0.44100
C1653       C  0.68467634  0.91697907  0.59560133    -0.04900
C1654       C  0.70307990  0.92063830  0.63487797    -0.32400
C1655       C  0.70531747  0.94256048  0.66960323     0.36900
C1656       C  0.68959948  0.96185555  0.66532417    -0.05300
C1657       C  0.67212975  0.95920362  0.62569566    -0.32300
C1658       C  0.66938424  0.93687283  0.59114991     0.36800
H1659       H  0.71495860  0.90567466  0.63932547     0.17200
O1660       O  0.72198437  0.94410260  0.70838336    -0.59800
H1661       H  0.65977206  0.97377754  0.62207389     0.17200
O1662       O  0.65208595  0.93510814  0.55290619    -0.59900
H1663       H  0.62805076  0.91912477  0.56025541     0.44200
H1664       H  0.74553598  0.96289136  0.70346932     0.44100
C1665       C  0.77359005  0.80695737  0.66667256    -0.04900
C1666       C  0.78922214  0.82433607  0.62684871    -0.32400
C1667       C  0.77041342  0.82691387  0.59196738     0.36900
C1668       C  0.73523784  0.81191776  0.59651002    -0.05300
C1669       C  0.71943767  0.79305177  0.63551961    -0.32300
C1670       C  0.73839450  0.79091764  0.67066911     0.36800
H1671       H  0.81631524  0.83708378  0.62348162     0.17200
O1672       O  0.78683762  0.84470638  0.55392799    -0.59800
H1673       H  0.69245828  0.78100858  0.63956627     0.17200
O1674       O  0.72240052  0.77326310  0.70899163    -0.59900
H1675       H  0.71690082  0.78854144  0.72580050     0.44200
H1676       H  0.78500627  0.82712073  0.53257603     0.44100
C1677       C  0.53745245  0.71519393  0.66289683    -0.04900
C1678       C  0.55089315  0.75070349  0.66417458    -0.32400
C1679       C  0.57266450  0.77209559  0.63027291     0.36900
C1680       C  0.58159766  0.75801182  0.59442403    -0.05300
C1681       C  0.56719693  0.72216604  0.59286934    -0.32300
C1682       C  0.54529902  0.70090164  0.62660571     0.36800
H1683       H  0.54507382  0.76196085  0.69217137     0.17200
O1684       O  0.58622557  0.80679742  0.63377694    -0.59800
H1685       H  0.57319518  0.71046672  0.56561841     0.17200
O1686       O  0.53242679  0.66624654  0.62448132    -0.59900
H1687       H  0.51002147  0.65667859  0.61024352     0.44200
H1688       H  0.56931011  0.81120435  0.62015520     0.44100
C1689       C  0.78221673  0.81580270  0.33578617    -0.04900
C1690       C  0.79283182  0.84714032  0.35723926    -0.32400
C1691       C  0.77352780  0.84983349  0.39113417     0.36900
C1692       C  0.74292299  0.82076550  0.40443055    -0.05300
C1693       C  0.73306527  0.78891456  0.38442750    -0.32300
C1694       C  0.75235409  0.78638958  0.34993207     0.36800
H1695       H  0.81594756  0.86991835  0.34678839     0.17200
O1696       O  0.78518817  0.88090970  0.41168083    -0.59800
H1697       H  0.70975161  0.76619742  0.39438518     0.17200
O1698       O  0.74130962  0.75543620  0.32942145    -0.59900
H1699       H  0.72808420  0.75523681  0.30314390     0.44200
H1700       H  0.77932382  0.89412587  0.39101456     0.44100
C1701       C  0.54062055  0.71676457  0.32969498    -0.04900
C1702       C  0.55906070  0.70463468  0.35214112    -0.32400
C1703       C  0.58151606  0.72373088  0.38664122     0.36900
C1704       C  0.58617028  0.75578145  0.39902157    -0.05300
C1705       C  0.56736833  0.76769342  0.37694565    -0.32300
C1706       C  0.54506874  0.74865992  0.34221286     0.36800
H1707       H  0.55587443  0.68011780  0.34295733     0.17200
O1708       O  0.59842993  0.71057388  0.40843358    -0.59800
H1709       H  0.57062825  0.79228621  0.38585543     0.17200
O1710       O  0.52838201  0.76185698  0.31995419    -0.59900
H1711       H  0.54292267  0.77449154  0.29397457     0.44200
H1712       H  0.58446121  0.69854282  0.43510414     0.44100
C1713       C  0.86593297  0.83441753  0.81320586    -0.04900
C1714       C  0.86609324  0.80886837  0.83951415    -0.32400
C1715       C  0.88865608  0.81765528  0.87540886     0.36900
C1716       C  0.91144063  0.85234851  0.88539325    -0.05300
C1717       C  0.91179728  0.87781396  0.85844051    -0.32300
C1718       C  0.88970949  0.86908511  0.82206857     0.36800
H1719       H  0.84808915  0.78209846  0.83286425     0.17200
O1720       O  0.88817487  0.79223168  0.90067112    -0.59800
H1721       H  0.93013405  0.90455441  0.86475699     0.17200
O1722       O  0.89231161  0.89433958  0.79411436    -0.59900
H1723       H  0.88878926  0.90997028  0.81337814     0.44200
H1724       H  0.90588926  0.78883967  0.88753832     0.44100
C1725       C  0.58502795  0.92667700  0.87592443    -0.04900
C1726       C  0.60431356  0.91286187  0.86134882    -0.32400
C1727       C  0.62903973  0.92955567  0.82820113     0.36900
C1728       C  0.63372722  0.95975320  0.80791118    -0.05300
C1729       C  0.61214018  0.97155840  0.81968330    -0.32300
C1730       C  0.58899754  0.95616472  0.85458879     0.36800
H1731       H  0.60096211  0.88975588  0.87676296     0.17200
O1732       O  0.65011867  0.91768832  0.81829408    -0.59800
H1733       H  0.61462542  0.49408160  0.80355952     0.17200
O1734       O  0.57041290  0.97023518  0.86793785    -0.59900
H1735       H  0.58413292  0.48716033  0.89144388     0.44200
H1736       H  0.63645549  0.89675261  0.80005452     0.44100
C1737       C  0.59489696  0.93230775  0.10958417    -0.04900
C1738       C  0.62628830  0.96192659  0.10105812    -0.32400
C1739       C  0.65124887  0.97599626  0.13415840     0.36900
C1740       C  0.64365714  0.96360894  0.17868557    -0.05300
C1741       C  0.61293423  0.93303003  0.18672916    -0.32300
C1742       C  0.58927511  0.91673890  0.15226707     0.36800
H1743       H  0.63154807  0.97444658  0.06863216     0.17200
O1744       O  0.68254663  0.50273749  0.12295694    -0.59800
H1745       H  0.60664423  0.92207902  0.22013408     0.17200
O1746       O  0.56047316  0.88581078  0.16055999    -0.59900
H1747       H  0.54842491  0.89007001  0.18482726     0.44200
H1748       H  0.69593803  0.49203529  0.11573004     0.44100
C1749       C  0.92307777  0.86598863  0.12104295    -0.04900
C1750       C  0.91830573  0.89025072  0.14337593    -0.32400
C1751       C  0.89621134  0.88057266  0.17992668     0.36900
C1752       C  0.87622970  0.84564743  0.19217150    -0.05300
C1753       C  0.88187119  0.82166300  0.17057881    -0.32300
C1754       C  0.90531202  0.83169589  0.13565906     0.36800
H1755       H  0.93213336  0.91682778  0.13284774     0.17200
O1756       O  0.89394889  0.90535553  0.20298204    -0.59800
H1757       H  0.86735591  0.79485513  0.17991954     0.17200
O1758       O  0.91080506  0.80781701  0.11590255    -0.59900
H1759       H  0.89285545  0.79636324  0.09300129     0.44200
H1760       H  0.91100981  0.91286710  0.22715491     0.44100
C1761       C  0.91723828  0.58773122  0.11353352    -0.04900
C1762       C  0.94570392  0.61953117  0.10229728    -0.32400
C1763       C  0.96316365  0.64454574  0.13503655     0.36900
C1764       C  0.95474238  0.63679062  0.18075815    -0.05300
C1765       C  0.92509403  0.60599393  0.19176890    -0.32300
C1766       C  0.90594202  0.58197154  0.15849504     0.36800
H1767       H  0.95493457  0.62496136  0.06809060     0.17200
O1768       O  0.48912496  0.67608368  0.12204335    -0.59800
H1769       H  0.91728972  0.59988714  0.22649790     0.17200
O1770       O  0.87617285  0.55296619  0.17003851    -0.59900
H1771       H  0.88212939  0.54033075  0.19161345     0.44200
H1772       H  0.47936552  0.69097046  0.12096567     0.44100
C1773       C  0.92201571  0.58631941  0.88457740    -0.04900
C1774       C  0.90952902  0.58003566  0.84054250    -0.32400
C1775       C  0.92818564  0.60204890  0.80554502     0.36900
C1776       C  0.95898918  0.63247997  0.81448237    -0.05300
C1777       C  0.97010112  0.64034808  0.85917469    -0.32300
C1778       C  0.95256187  0.61699318  0.89388255     0.36800
H1779       H  0.88602181  0.55676305  0.83278266     0.17200
O1780       O  0.91682685  0.59257038  0.76240363    -0.59800
H1781       H  0.49357392  0.66366586  0.86680111     0.17200
O1782       O  0.96682126  0.62295508  0.93581182    -0.59900
H1783       H  0.46770695  0.64391575  0.94696879     0.44200
H1784       H  0.92806941  0.58046226  0.75124438     0.44100
C1785       C  0.82966117  0.90774007  0.88360325    -0.04900
C1786       C  0.82573292  0.87584853  0.89471250    -0.32400
C1787       C  0.81761613  0.85067425  0.86186978     0.36900
C1788       C  0.81675407  0.85845968  0.81627186    -0.05300
C1789       C  0.81883569  0.88951798  0.80533293    -0.32300
C1790       C  0.82410562  0.91346855  0.83863033     0.36800
H1791       H  0.82931661  0.87038040  0.92895297     0.17200
O1792       O  0.80975659  0.81827923  0.87430470    -0.59800
H1793       H  0.81737569  0.89574847  0.77061063     0.17200
O1794       O  0.82488228  0.94291824  0.82648684    -0.59900
H1795       H  0.80273046  0.93928997  0.83567861     0.44200
H1796       H  0.82659905  0.82105125  0.89705710     0.44100
C1797       C  0.83170608  0.91000730  0.11497901    -0.04900
C1798       C  0.83016925  0.87899029  0.10548636    -0.32400
C1799       C  0.82406613  0.85534669  0.13958404     0.36900
C1800       C  0.82236108  0.86374856  0.18467561    -0.05300
C1801       C  0.82162629  0.89359918  0.19383267    -0.32300
C1802       C  0.82556190  0.91628146  0.15934301     0.36800
H1803       H  0.83443380  0.87330329  0.07167466     0.17200
O1804       O  0.82119337  0.82471172  0.12868175    -0.59800
H1805       H  0.81931562  0.90013795  0.22808269     0.17200
O1806       O  0.82337419  0.94454748  0.16912425    -0.59900
H1807       H  0.84185804  0.95843109  0.19056900     0.44200
H1808       H  0.79668957  0.80829626  0.12567250     0.44100
C1809       C  0.55805432  0.64561466  0.10953253    -0.04900
C1810       C  0.53180192  0.61937562  0.13469462    -0.32400
C1811       C  0.51758343  0.62702951  0.17090686     0.36900
C1812       C  0.52879155  0.66142699  0.18164245    -0.05300
C1813       C  0.55527516  0.68771177  0.15665180    -0.32300
C1814       C  0.56993274  0.67998858  0.12088543     0.36800
H1815       H  0.52306964  0.59282727  0.12701032     0.17200
O1816       O  0.49275992  0.60069604  0.19563405    -0.59800
H1817       H  0.56428013  0.71427412  0.16460307     0.17200
O1818       O  0.59593442  0.70612989  0.09737503    -0.59900
H1819       H  0.61668175  0.70941595  0.11172983     0.44200
H1820       H  0.50424032  0.59889030  0.22265438     0.44100
C1821       C  0.53223038  0.65393977  0.80464632    -0.04900
C1822       C  0.51720162  0.61943136  0.81807394    -0.32400
C1823       C  0.53057131  0.60989689  0.85362536     0.36900
C1824       C  0.56077071  0.63460042  0.87422940    -0.05300
C1825       C  0.57693792  0.66861212  0.85903622    -0.32300
C1826       C  0.56274045  0.67846503  0.82507576     0.36800
H1827       H  0.49404732  0.60002244  0.80245218     0.17200
O1828       O  0.51317619  0.57691060  0.86969539    -0.59800
H1829       H  0.60015457  0.68785537  0.87474309     0.17200
O1830       O  0.57837628  0.71237573  0.81320951    -0.59900
H1831       H  0.56700096  0.72187267  0.83104338     0.44200
H1832       H  0.51218215  0.56216034  0.84453494     0.44100
C1833       C  0.66592235  0.56783190  0.89028012    -0.04900
C1834       C  0.66670062  0.53784502  0.89870939    -0.32400
C1835       C  0.67731233  0.52341334  0.86558433     0.36900
C1836       C  0.68281176  0.53607913  0.82111732    -0.05300
C1837       C  0.68423822  0.56733080  0.81353632    -0.32300
C1838       C  0.67730503  0.58383440  0.84804008     0.36800
H1839       H  0.65872560  0.52519914  0.93099331     0.17200
O1840       O  0.68249965  0.99716897  0.87667390    -0.59800
H1841       H  0.68969056  0.57867763  0.78035373     0.17200
O1842       O  0.68114044  0.61539059  0.84014470    -0.59900
H1843       H  0.66575474  0.61217267  0.81499855     0.44200
H1844       H  0.66313421  0.98077864  0.89544632     0.44100
C1845       C  0.67329206  0.54006896  0.19200158    -0.04900
C1846       C  0.63966295  0.52882373  0.18145413    -0.32400
C1847       C  0.63182653  0.54465692  0.14738581     0.36900
C1848       C  0.65768875  0.57347800  0.12491272    -0.05300
C1849       C  0.69110200  0.58706569  0.13878242    -0.32300
C1850       C  0.69910986  0.57014938  0.17129436     0.36800
H1851       H  0.61941202  0.50645378  0.19794225     0.17200
O1852       O  0.59888831  0.53080736  0.13462484    -0.59800
H1853       H  0.71112351  0.60993710  0.12287404     0.17200
O1854       O  0.73229176  0.58235905  0.18104249    -0.59900
H1855       H  0.73881893  0.56896717  0.16179076     0.44200
H1856       H  0.58845531  0.53757850  0.15836778     0.44100
C1857       C  0.82394356  0.73777492  0.39981818    -0.04900
C1858       C  0.84108576  0.77358954  0.40537434    -0.32400
C1859       C  0.84013930  0.79484681  0.37216525     0.36900
C1860       C  0.82215211  0.78057125  0.33234139    -0.05300
C1861       C  0.80503820  0.74490948  0.32637850    -0.32300
C1862       C  0.80572050  0.72348659  0.35975978     0.36800
H1863       H  0.85536079  0.78529443  0.43567762     0.17200
O1864       O  0.85782739  0.82967869  0.37819630    -0.59800
H1865       H  0.79138273  0.73371440  0.29550274     0.17200
O1866       O  0.78911455  0.68881673  0.35238593    -0.59900
H1867       H  0.80615653  0.68445604  0.33907793     0.44200
H1868       H  0.84375389  0.83438896  0.39851976     0.44100
C1869       C  0.82021571  0.77897339  0.66565657    -0.05300
C1870       C  0.79193405  0.74832314  0.65096764    -0.32400
C1871       C  0.79475990  0.72883027  0.61661334     0.36900
C1872       C  0.82629742  0.73983458  0.59643043    -0.05300
C1873       C  0.85438239  0.77073090  0.61074299    -0.32300
C1874       C  0.85145711  0.79037158  0.64454646     0.36800
H1875       H  0.76776662  0.73903240  0.66697894     0.17200
O1876       O  0.76672805  0.69862184  0.60395741    -0.59800
H1877       H  0.87873142  0.77993407  0.59531245     0.17200
O1878       O  0.87941282  0.82075378  0.65683768    -0.59900
H1879       H  0.87845648  0.83852182  0.63875922     0.44200
H1880       H  0.76703186  0.68072056  0.62257423     0.44100
C1881       C  0.96232240  0.68139982  0.66642220    -0.04900
C1882       C  0.96131180  0.71064389  0.65461471    -0.32400
C1883       C  0.93968155  0.70905792  0.62040955     0.36900
C1884       C  0.91857126  0.67781277  0.59794554    -0.05300
C1885       C  0.91983806  0.64872999  0.60997392    -0.32300
C1886       C  0.94140449  0.65035703  0.64385724     0.36800
H1887       H  0.97671315  0.73444137  0.67256669     0.17200
O1888       O  0.93801165  0.73760474  0.61093522    -0.59800
H1889       H  0.90408804  0.62455570  0.59295000     0.17200
O1890       O  0.94210879  0.62144842  0.65469193    -0.59900
H1891       H  0.92125036  0.60693799  0.67214693     0.44200
H1892       H  0.95697824  0.75136391  0.59007619     0.44100
C1893       C  0.92357640  0.68611819  0.40163085    -0.04900
C1894       C  0.94228411  0.66990813  0.40653502    -0.32400
C1895       C  0.96313132  0.67066800  0.37193530     0.36900
C1896       C  0.96562838  0.68783141  0.33146563    -0.05300
C1897       C  0.94773105  0.70482115  0.32692521    -0.32300
C1898       C  0.92717321  0.70443757  0.36172198     0.36800
H1899       H  0.94022233  0.65593791  0.43700906     0.17200
O1900       O  0.97986629  0.65336699  0.37734644    -0.59800
H1901       H  0.94911128  0.71777337  0.29575122     0.17200
O1902       O  0.90908624  0.72019895  0.35512183    -0.59900
H1903       H  0.92437747  0.74436283  0.36422967     0.44200
H1904       H  0.96479525  0.63032860  0.36436678     0.44100
C1905       C  0.76624548  0.58380082  0.59712409    -0.04900
C1906       C  0.73933450  0.58535884  0.61595604    -0.32400
C1907       C  0.72030174  0.56356574  0.65108756     0.36900
C1908       C  0.72790033  0.53953606  0.66836941    -0.05300
C1909       C  0.75457227  0.53758174  0.64951035    -0.32300
C1910       C  0.77361655  0.55935830  0.61400743     0.36800
H1911       H  0.73281727  0.60349953  0.60329571     0.17200
O1912       O  0.69364004  0.56531998  0.66771628    -0.59800
H1913       H  0.76104000  0.51959750  0.66285106     0.17200
O1914       O  0.80026862  0.55756034  0.59753949    -0.59900
H1915       H  0.79030335  0.53839686  0.57569176     0.44200
H1916       H  0.70376007  0.58595486  0.68713220     0.44100
C1917       C  0.72936380  0.53666149  0.33083593    -0.04900
C1918       C  0.71472653  0.53622576  0.37209681    -0.32400
C1919       C  0.73424685  0.55841418  0.40667803     0.36900
C1920       C  0.76918791  0.58100755  0.40056405    -0.05300
C1921       C  0.78394853  0.58050230  0.35962292    -0.32300
C1922       C  0.76420375  0.55886810  0.32470374     0.36800
H1923       H  0.68786914  0.51949947  0.37692436     0.17200
O1924       O  0.71894841  0.55755543  0.44649547    -0.59800
H1925       H  0.81062561  0.59781167  0.35407055     0.17200
O1926       O  0.77888937  0.56043996  0.28407560    -0.59900
H1927       H  0.78752319  0.54464509  0.28691426     0.44200
H1928       H  0.70850208  0.57154270  0.44125661     0.44100
loop_ 
_geom_bond_atom_site_label_1 
_geom_bond_atom_site_label_2 
_geom_bond_distance 
_geom_bond_site_symmetry_2 
_ccdc_geom_bond_type 
O1          Cr19   1.985       .  S
O1            C9   1.261       .  A
O2          Cr19   2.008       .  S
O2            C3   1.265       .  A
C3            O4   1.261       .  A
C3          C447   1.487       .  S
O4          Cr20   1.985       .  S
O5          Cr20   2.005       .  S
O5            C6   1.266       .  A
C6            O7   1.263       .  A
C6          C411   1.487       .  S
O7          Cr21   1.990       .  S
O8          Cr21   2.003       .  S
O8            C9   1.264       .  A
C9          C474   1.481       .  S
O10         Cr19   2.013       .  S
O10          C18   1.267       .  A
O11         Cr19   1.971       .  S
O11          C12   1.261       .  A
C12          O13   1.266       .  A
C12         C438   1.480       .  S
O13         Cr20   2.010       .  S
O14         Cr20   1.980       .  S
O14          C15   1.262       .  A
C15          O16   1.265       .  A
C15         C426   1.484       .  S
O16         Cr21   2.009       .  S
O17         Cr21   1.978       .  S
O17          C18   1.263       .  A
C18         C459   1.487       .  S
Cr19         O22   1.774       .  S
Cr20         O22   1.773       .  S
Cr21         O22   1.773       .  S
N23          C28   1.355       .  A
N23          C27   1.353       .  A
N23          H55   1.032       .  S
N24          C31   1.352       .  A
N24          C32   1.353   1_554  A
N25          C30   1.358       .  A
N25          C29   1.360       .  A
N25          H56   1.040       .  S
N26          C33   1.353   1_556  A
N26          C34   1.351       .  A
C27          C35   1.387       .  A
C27          C43   1.418       .  A
C28          C44   1.420       .  A
C28          C36   1.389       .  A
C29          C37   1.387       .  A
C29          C46   1.426       .  A
C30          C45   1.421       .  A
C30          C38   1.386       .  A
C31          C43   1.420       .  A
C31          C39   1.387       .  A
C32          C46   1.421       .  A
C32          C40   1.386       .  A
C33          C41   1.386       .  A
C33          C44   1.419       .  A
C34          C42   1.388       .  A
C34          C45   1.418       .  A
C35          C36   1.370       .  A
C35          H47   1.082       .  S
C36          H48   1.082       .  S
C37          C38   1.371       .  A
C37          H49   1.082       .  S
C38          H50   1.080       .  S
C39          C40   1.372   1_554  A
C39          H51   1.080       .  S
C40          H52   1.081       .  S
C41          C42   1.375   1_554  A
C41          H53   1.082       .  S
C42          H54   1.082       .  S
C43         C402   1.491       .  S
C44         C363   1.491       .  S
C45         C378   1.493       .  S
C46         C387   1.511       .  S
N57          C62   1.352       .  A
N57         C543   1.352       .  A
N57          H89   1.044       .  S
N58          C65   1.345       .  A
N58          C66   1.347   1_556  A
N59          C64   1.350       .  A
N59         C545   1.352       .  A
N59          H90   1.044       .  S
N60          C67   1.348       .  A
N60          C68   1.348   1_556  A
C61         N539   1.352   1_545  A
C61          C69   1.388       .  A
C61          C77   1.417       .  A
C62          C78   1.417       .  A
C62          C70   1.387       .  A
C63         N541   1.352   1_545  A
C63          C71   1.387       .  A
C63          C80   1.415       .  A
C64          C79   1.414       .  A
C64          C72   1.387       .  A
C65          C77   1.407       .  A
C65          C73   1.386       .  A
C66          C80   1.410       .  A
C66          C74   1.387       .  A
C67          C75   1.387       .  A
C67          C78   1.413       .  A
C68          C76   1.386       .  A
C68          C79   1.410       .  A
C69         C552   1.380   1_545  A
C69          H81   1.082       .  S
C70         C551   1.380       .  A
C70          H82   1.082       .  S
C71         C554   1.380   1_545  A
C71          H83   1.082       .  S
C72         C553   1.380       .  A
C72          H84   1.082       .  S
C73          C74   1.379   1_556  A
C73          H85   1.082       .  S
C74          H86   1.082       .  S
C75          C76   1.379   1_556  A
C75          H87   1.082       .  S
C76          H88   1.082       .  S
C77         C327   1.492       .  S
C78         C339   1.501       .  S
C79         C351   1.495       .  S
C80         C315   1.499       .  S
N91          C95   1.356       .  A
N91        C1060   1.357       .  A
N91         H123   1.040       .  S
N92          C99   1.351       .  A
N92         C100   1.353   1_554  A
N93          C97   1.355       .  A
N93        C1062   1.353       .  A
N93         H124   1.030       .  S
N94         C101   1.352   1_556  A
N94         C102   1.351       .  A
C95         C103   1.387       .  A
C95         C111   1.417       .  A
C96        N1055   1.357       .  A
C96         C112   1.422       .  A
C96         C104   1.387       .  A
C97         C105   1.389       .  A
C97         C114   1.421       .  A
C98        N1057   1.353   1_455  A
C98         C113   1.419       .  A
C98         C106   1.387       .  A
C99         C111   1.418       .  A
C99         C107   1.387       .  A
C100        C114   1.420       .  A
C100        C108   1.387       .  A
C101        C109   1.386       .  A
C101        C112   1.419       .  A
C102        C110   1.387       .  A
C102        C113   1.418       .  A
C103       C1068   1.371       .  A
C103        H115   1.080       .  S
C104       C1067   1.371   1_455  A
C104        H116   1.082       .  S
C105       C1070   1.369       .  A
C105        H117   1.082       .  S
C106       C1069   1.369   1_455  A
C106        H118   1.082       .  S
C107        C108   1.376   1_554  A
C107        H119   1.083       .  S
C108        H120   1.082       .  S
C109        C110   1.372   1_554  A
C109        H121   1.081       .  S
C110        H122   1.080       .  S
C111        C303   1.489       .  S
C112        C291   1.505       .  S
C113        C279   1.489       .  S
C114        C270   1.490       .  S
C125        C255   1.488       .  S
C125        C130   1.406       .  A
C125       C1090   1.415   1_455  A
C126        C450   1.486       .  S
C126        C127   1.405       .  A
C126       C1089   1.415       .  A
C127        C128   1.406       .  A
C127        H132   1.084       .  S
C128        C318   1.496       .  S
C128       C1093   1.422       .  A
C129        C366   1.490       .  S
C129        C130   1.406       .  A
C129       C1092   1.422   1_455  A
C130        H131   1.084       .  S
C133        C414   1.481       .  S
C133        C134   1.410       .  A
C133        C138   1.405       .  A
C134        C243   1.480       .  S
C134        C135   1.401       .  A
C135        C136   1.402       .  A
C135        H140   1.084       .  S
C136        C354   1.491       .  S
C136        C137   1.422       .  A
C137        C306   1.494       .  S
C137        C138   1.409       .  A
C138        H139   1.084       .  S
C141        C435   1.479       .  S
C141        C146   1.398       .  A
C141       C1106   1.408       .  A
C142        C231   1.482       .  S
C142        C143   1.407       .  A
C142       C1105   1.408   1_455  A
C143        C144   1.411       .  A
C143        H148   1.084       .  S
C144        C375   1.498       .  S
C144       C1109   1.424   1_455  A
C145        C330   1.491       .  S
C145        C146   1.403       .  A
C145       C1108   1.424       .  A
C146        H147   1.084       .  S
C149        C423   1.491       .  S
C149        C150   1.417       .  A
C149        C154   1.407       .  A
C150        C219   1.485       .  S
C150        C151   1.406       .  A
C151        C152   1.404       .  A
C151        H156   1.084       .  S
C152        C342   1.495       .  S
C152        C153   1.420       .  A
C153        C267   1.488       .  S
C153        C154   1.404       .  A
C154        H155   1.084       .  S
C157        C210   1.488       .  S
C157        C162   1.402       .  A
C157        C640   1.413       .  A
C158        C462   1.487       .  S
C158        C159   1.409       .  A
C158        C639   1.413   1_545  A
C159        C160   1.409       .  A
C159        H164   1.083       .  S
C160        C390   1.510       .  S
C160        C643   1.428   1_545  A
C161        C282   1.490       .  S
C161        C162   1.407       .  A
C161        C642   1.428       .  A
C162        H163   1.084       .  S
C165        C195   1.490       .  S
C165        C170   1.406       .  A
C165        C648   1.413       .  A
C166        C471   1.478       .  S
C166        C167   1.401       .  A
C166        C647   1.413   1_545  A
C167        C168   1.403       .  A
C167        H172   1.084       .  S
C168        C399   1.492       .  S
C168        C651   1.426   1_545  A
C169        C294   1.502       .  S
C169        C170   1.409       .  A
C169        C650   1.426       .  A
C170        H171   1.084       .  S
O173       Cr191   1.989       .  S
O173        C181   1.263       .  A
O174       Cr191   2.014       .  S
O174        C175   1.266       .  A
C175        O176   1.263       .  A
C175        C207   1.494       .  S
O176       Cr192   1.991       .  S
O177       Cr192   2.008       .  S
O177        C178   1.266       .  A
C178        O179   1.261       .  A
C178        C222   1.484       .  S
O179       Cr193   1.982       .  S
O180       Cr193   2.006       .  S
O180        C181   1.266       .  A
C181        C234   1.492       .  S
O182       Cr191   2.013       .  S
O182        C190   1.267       .  A
O183       Cr191   1.976       .  S
O183        C184   1.261       .  A
C184        O185   1.267       .  A
C184        C198   1.489       .  S
O185       Cr192   2.018       .  S
O186       Cr192   1.975       .  S
O186        C187   1.262       .  A
C187        O188   1.265       .  A
C187        C246   1.483       .  S
O188       Cr193   2.011       .  S
O189       Cr193   1.978       .  S
O189        C190   1.261       .  A
C190        C258   1.484       .  S
Cr191       O194   1.774       .  S
Cr192       O194   1.777       .  S
Cr193       O194   1.778       .  S
C195        C196   1.403       .  A
C195        C200   1.410       .  A
C196        C197   1.397       .  A
C196        H201   1.084       .  S
C197        C198   1.411       .  A
C197        O202   1.372       .  S
C198        C199   1.409       .  A
C199        C200   1.407       .  A
C199        H203   1.083       .  S
C200        O204   1.371       .  S
O202        H206   0.992       .  S
O204        H205   0.992       .  S
C207        C208   1.407       .  A
C207        C212   1.416       .  A
C208        C209   1.404       .  A
C208        H213   1.083       .  S
C209        C210   1.408       .  A
C209        O214   1.371       .  S
C210        C211   1.401       .  A
C211        C212   1.406       .  A
C211        H215   1.084       .  S
C212        O216   1.372       .  S
O214        H218   0.991       .  S
O216        H217   0.992       .  S
C219        C220   1.402       .  A
C219        C224   1.408       .  A
C220        C221   1.400       .  A
C220        H225   1.084       .  S
C221        C222   1.414       .  A
C221        O226   1.372       .  S
C222        C223   1.405       .  A
C223        C224   1.403       .  A
C223        H227   1.083       .  S
C224        O228   1.372       .  S
O226        H230   0.992       .  S
O228        H229   0.992       .  S
C231        C232   1.402       .  A
C231        C236   1.403       .  A
C232        C233   1.404       .  A
C232        H237   1.084       .  S
C233        C234   1.413       .  A
C233        O238   1.371       .  S
C234        C235   1.411       .  A
C235        C236   1.401       .  A
C235        H239   1.083       .  S
C236        O240   1.371       .  S
O238        H242   0.992       .  S
O240        H241   0.992       .  S
C243        C244   1.402       .  A
C243        C248   1.406       .  A
C244        C245   1.396       .  A
C244        H249   1.084       .  S
C245        C246   1.409       .  A
C245        O250   1.372       .  S
C246        C247   1.409       .  A
C247        C248   1.405       .  A
C247        H251   1.083       .  S
C248        O252   1.371       .  S
O250        H254   0.992       .  S
O252        H253   0.992       .  S
C255        C256   1.404       .  A
C255        C260   1.409       .  A
C256        C257   1.401       .  A
C256        H261   1.084       .  S
C257        C258   1.411       .  A
C257        O262   1.372       .  S
C258        C259   1.406       .  A
C259        C260   1.403       .  A
C259        H263   1.084       .  S
C260        O264   1.371       .  S
O262        H266   0.992       .  S
O264        H265   0.992       .  S
C267        C268   1.406       .  A
C267        C272   1.409       .  A
C268        C269   1.403       .  A
C268        H273   1.083       .  S
C269        C270   1.408       .  A
C269        O274   1.371       .  S
C270        C271   1.403       .  A
C271        C272   1.401       .  A
C271        H275   1.084       .  S
C272        O276   1.374       .  S
O274        H278   0.992       .  S
O276        H277   0.992       .  S
C279        C280   1.402       .  A
C279        C284   1.409       .  A
C280        C281   1.403       .  A
C280        H285   1.083       .  S
C281        C282   1.413       .  A
C281        O286   1.372       .  S
C282        C283   1.404       .  A
C283        C284   1.395       .  A
C283        H769   1.084       .  S
C284        O288   1.372       .  S
O286        H290   0.992       .  S
H287        C765   1.084       .  S
O288        H771   0.992       .  S
H289        O770   0.992       .  S
C291        C292   1.407       .  A
C291        C296   1.412       .  A
C292        C293   1.400       .  A
C292        H297   1.083       .  S
C293        C294   1.412       .  A
C293        O780   1.371       .  S
C294        C295   1.407       .  A
C295        C296   1.403       .  A
C295        H299   1.083       .  S
C296        O300   1.374       .  S
O298        C775   1.371   1_545  S
O298        H302   0.991   1_545  S
O300        H301   0.992       .  S
C303        C304   1.402       .  A
C303        C308   1.407       .  A
C304        C305   1.401       .  A
C304        H309   1.084       .  S
C305        C306   1.415       .  A
C305        O310   1.371       .  S
C306        C307   1.404       .  A
C307        C308   1.400       .  A
C307        H311   1.083       .  S
C308        O312   1.372       .  S
O310        H314   0.991       .  S
O312        H313   0.992       .  S
C315        C316   1.407       .  A
C315        C320   1.412       .  A
C316        C317   1.398       .  A
C316        H321   1.083       .  S
C317        C318   1.410       .  A
C317       O1286   1.371       .  S
C318        C319   1.406       .  A
C319        C320   1.403       .  A
C319        H323   1.083       .  S
C320        O324   1.374       .  S
O322       C1281   1.371       .  S
O322        H326   0.991       .  S
O324        H325   0.992       .  S
C327        C328   1.402       .  A
C327        C332   1.413       .  A
C328        C329   1.394       .  A
C328        H333   1.084       .  S
C329        C330   1.411       .  A
C329        O334   1.371       .  S
C330        C331   1.405       .  A
C331        C332   1.403       .  A
C331       H1299   1.083       .  S
C332        O336   1.373       .  S
O334        H338   0.992       .  S
H335       C1295   1.083       .  S
O336       H1301   0.992       .  S
H337       O1300   0.992       .  S
C339        C340   1.407       .  A
C339        C344   1.413       .  A
C340        C341   1.403       .  A
C340        H345   1.082       .  S
C341        C342   1.409       .  A
C341        O346   1.376       .  S
C342        C343   1.406       .  A
C343        C344   1.400       .  A
C343        H347   1.083       .  S
C344        O348   1.372       .  S
O346        H350   0.992       .  S
O348        H349   0.992       .  S
C351        C352   1.407       .  A
C351        C356   1.411       .  A
C352        C353   1.398       .  A
C352        H357   1.083       .  S
C353        C354   1.410       .  A
C353        O358   1.371       .  S
C354        C355   1.405       .  A
C355        C356   1.400       .  A
C355        H359   1.083       .  S
C356        O360   1.374       .  S
O358        H362   0.991       .  S
O360        H361   0.992       .  S
C363        C364   1.404       .  A
C363        C368   1.407       .  A
C364        C365   1.399       .  A
C364        H369   1.084       .  S
C365        C366   1.410       .  A
C365        O370   1.371   1_455  S
C366        C367   1.406       .  A
C367        C368   1.403       .  A
C367        H371   1.083       .  S
C368        O372   1.371       .  S
O370        H374   0.992   1_655  S
O372        H373   0.992       .  S
C375        C376   1.409       .  A
C375        C380   1.411       .  A
C376        C377   1.404       .  A
C376        H381   1.083   1_455  S
C377        C378   1.407       .  A
C377        O382   1.373       .  S
C378        C379   1.403       .  A
C379        C380   1.401       .  A
C379        H383   1.084       .  S
C380        O384   1.371       .  S
O382        H386   0.992       .  S
O384        H385   0.992       .  S
C387        C388   1.408       .  A
C387        C392   1.412       .  A
C388        C389   1.408       .  A
C388        H393   1.083       .  S
C389        C390   1.414       .  A
C389        O876   1.376   1_545  S
C390        C391   1.409       .  A
C391        C392   1.405       .  A
C391        H395   1.082       .  S
C392        O396   1.375       .  S
O394        C871   1.376       .  S
O394        H398   0.992       .  S
O396        H397   0.992       .  S
C399        C400   1.404       .  A
C399        C404   1.414       .  A
C400        C401   1.397       .  A
C400        H405   1.083       .  S
C401        C402   1.409       .  A
C401        O406   1.373       .  S
C402        C403   1.403       .  A
C403        C404   1.401       .  A
C403        H407   1.083       .  S
C404        O408   1.372       .  S
O406        H410   0.992       .  S
O408        H409   0.992       .  S
C411        C412   1.408       .  A
C411        C416   1.412       .  A
C412        C413   1.400       .  A
C412        H417   1.083       .  S
C413        C414   1.402       .  A
C413        O418   1.371       .  S
C414        C415   1.404       .  A
C415        C416   1.404       .  A
C415        H419   1.084       .  S
C416        O420   1.372       .  S
O418        H422   0.992       .  S
O420        H421   0.992       .  S
C423        C424   1.405       .  A
C423        C428   1.410       .  A
C424        C425   1.405       .  A
C424        H429   1.083       .  S
C425        C426   1.413       .  A
C425        O430   1.372       .  S
C426        C427   1.403       .  A
C427        C428   1.399       .  A
C427        H431   1.084       .  S
C428        O432   1.371       .  S
O430        H434   0.992       .  S
O432        H433   0.992       .  S
C435        C436   1.402       .  A
C435        C440   1.407       .  A
C436        C437   1.406       .  A
C436        H441   1.083       .  S
C437        C438   1.413       .  A
C437        O442   1.371       .  S
C438        C439   1.403       .  A
C439        C440   1.396       .  A
C439        H443   1.084       .  S
C440        O444   1.372       .  S
O442        H446   0.992       .  S
O444        H445   0.992       .  S
C447        C448   1.408       .  A
C447        C452   1.411       .  A
C448        C449   1.401       .  A
C448        H453   1.084       .  S
C449        C450   1.408       .  A
C449        O454   1.372       .  S
C450        C451   1.404       .  A
C451        C452   1.402       .  A
C451        H455   1.084       .  S
C452        O456   1.371       .  S
O454        H458   0.992       .  S
O456        H457   0.992       .  S
C459        C460   1.404       .  A
C459        C464   1.415       .  A
C460        C461   1.398       .  A
C460        H465   1.084       .  S
C461        C462   1.409       .  A
C461        O466   1.373       .  S
C462        C463   1.403       .  A
C463        C464   1.406       .  A
C463        H467   1.083       .  S
C464        O468   1.371       .  S
O466        H470   0.992       .  S
O468        H469   0.992       .  S
C471        C472   1.399       .  A
C471        C476   1.408       .  A
C472        C473   1.400       .  A
C472        H477   1.084       .  S
C473        C474   1.414       .  A
C473        O478   1.372       .  S
C474        C475   1.404       .  A
C475        C476   1.401       .  A
C475        H479   1.084       .  S
C476        O480   1.372       .  S
O478        H482   0.992       .  S
O480        H481   0.991       .  S
O483       Cr501   1.985       .  S
O483        C491   1.261       .  A
O484       Cr501   2.008       .  S
O484        C485   1.265       .  A
C485        O486   1.261       .  A
C485        C929   1.487       .  S
O486       Cr502   1.985       .  S
O487       Cr502   2.005       .  S
O487        C488   1.266       .  A
C488        O489   1.263       .  A
C488        C893   1.487       .  S
O489       Cr503   1.990       .  S
O490       Cr503   2.003       .  S
O490        C491   1.264       .  A
C491        C956   1.481       .  S
O492       Cr501   2.013       .  S
O492        C500   1.267       .  A
O493       Cr501   1.971       .  S
O493        C494   1.261       .  A
C494        O495   1.266       .  A
C494        C920   1.480       .  S
O495       Cr502   2.010       .  S
O496       Cr502   1.980       .  S
O496        C497   1.262       .  A
C497        O498   1.265       .  A
C497        C908   1.484       .  S
O498       Cr503   2.009       .  S
O499       Cr503   1.978       .  S
O499        C500   1.263       .  A
C500        C941   1.487       .  S
Cr501       O504   1.774       .  S
Cr502       O504   1.773       .  S
Cr503       O504   1.773       .  S
N505        C510   1.355       .  A
N505        C509   1.353       .  A
N505        H537   1.032       .  S
N506        C513   1.352       .  A
N506        C514   1.353   1_554  A
N507        C512   1.358       .  A
N507        C511   1.360       .  A
N507        H538   1.040       .  S
N508        C515   1.353   1_556  A
N508        C516   1.351       .  A
C509        C517   1.387       .  A
C509        C525   1.418       .  A
C510        C526   1.420       .  A
C510        C518   1.389       .  A
C511        C519   1.387       .  A
C511        C528   1.426       .  A
C512        C527   1.421       .  A
C512        C520   1.386       .  A
C513        C525   1.420       .  A
C513        C521   1.387       .  A
C514        C528   1.421       .  A
C514        C522   1.386       .  A
C515        C523   1.386       .  A
C515        C526   1.419       .  A
C516        C524   1.388       .  A
C516        C527   1.418       .  A
C517        C518   1.370       .  A
C517        H529   1.082       .  S
C518        H530   1.082       .  S
C519        C520   1.371       .  A
C519        H531   1.082       .  S
C520        H532   1.080       .  S
C521        C522   1.372   1_554  A
C521        H533   1.080       .  S
C522        H534   1.081       .  S
C523        C524   1.375   1_554  A
C523        H535   1.082       .  S
C524        H536   1.082       .  S
C525        C884   1.491       .  S
C526        C845   1.491       .  S
C527        C860   1.493       .  S
C528        C869   1.511       .  S
N539        C544   1.352       .  A
N539        H571   1.044       .  S
N540        C547   1.345       .  A
N540        C548   1.347   1_556  A
N541        C546   1.350       .  A
N541        H572   1.044       .  S
N542        C549   1.348       .  A
N542        C550   1.348   1_556  A
C543        C551   1.388       .  A
C543        C559   1.417       .  A
C544        C560   1.417       .  A
C544        C552   1.387       .  A
C545        C553   1.387       .  A
C545        C562   1.415       .  A
C546        C561   1.414       .  A
C546        C554   1.387       .  A
C547        C559   1.407       .  A
C547        C555   1.386       .  A
C548        C562   1.410       .  A
C548        C556   1.387       .  A
C549        C557   1.387       .  A
C549        C560   1.413       .  A
C550        C558   1.386       .  A
C550        C561   1.410       .  A
C551        H563   1.082       .  S
C552        H564   1.082       .  S
C553        H565   1.082       .  S
C554        H566   1.082       .  S
C555        C556   1.379   1_556  A
C555        H567   1.082       .  S
C556        H568   1.082       .  S
C557        C558   1.379   1_556  A
C557        H569   1.082       .  S
C558        H570   1.082       .  S
C559        C809   1.492       .  S
C560        C821   1.501       .  S
C561        C833   1.495       .  S
C562        C797   1.499       .  S
N573       C1542   1.357       .  A
N573        C577   1.356       .  A
N573        H605   1.040       .  S
N574        C581   1.351       .  A
N574        C582   1.353   1_554  A
N575       C1544   1.353       .  A
N575        C579   1.355       .  A
N575        H606   1.030       .  S
N576        C583   1.352   1_556  A
N576        C584   1.351       .  A
C577        C585   1.387       .  A
C577        C593   1.417       .  A
C578       N1537   1.357       .  A
C578        C594   1.422       .  A
C578        C586   1.387       .  A
C579        C587   1.389       .  A
C579        C596   1.421       .  A
C580       N1539   1.353   1_455  A
C580        C595   1.419       .  A
C580        C588   1.387       .  A
C581        C593   1.418       .  A
C581        C589   1.387       .  A
C582        C596   1.420       .  A
C582        C590   1.387       .  A
C583        C591   1.386       .  A
C583        C594   1.419       .  A
C584        C592   1.387       .  A
C584        C595   1.418       .  A
C585       C1550   1.371       .  A
C585        H597   1.080       .  S
C586       C1549   1.371   1_455  A
C586        H598   1.082       .  S
C587       C1552   1.369       .  A
C587        H599   1.082       .  S
C588       C1551   1.369   1_455  A
C588        H600   1.082       .  S
C589        C590   1.376   1_554  A
C589        H601   1.083       .  S
C590        H602   1.082       .  S
C591        C592   1.372   1_554  A
C591        H603   1.081       .  S
C592        H604   1.080       .  S
C593        C785   1.489       .  S
C594        C773   1.505       .  S
C595        C761   1.489       .  S
C596        C752   1.490       .  S
C607        C737   1.488       .  S
C607       C1572   1.415   1_455  A
C607        C612   1.406       .  A
C608        C932   1.486       .  S
C608       C1571   1.415       .  A
C608        C609   1.405       .  A
C609        C610   1.406       .  A
C609        H614   1.084       .  S
C610        C800   1.496       .  S
C610       C1575   1.422       .  A
C611        C848   1.490       .  S
C611       C1574   1.422   1_455  A
C611        C612   1.406       .  A
C612        H613   1.084       .  S
C615        C896   1.481       .  S
C615        C616   1.410       .  A
C615        C620   1.405       .  A
C616        C725   1.480       .  S
C616        C617   1.401       .  A
C617        C618   1.402       .  A
C617        H622   1.084       .  S
C618        C836   1.491       .  S
C618        C619   1.422       .  A
C619        C788   1.494       .  S
C619        C620   1.409       .  A
C620        H621   1.084       .  S
C623        C917   1.479       .  S
C623       C1588   1.408       .  A
C623        C628   1.398       .  A
C624        C713   1.482       .  S
C624       C1587   1.408   1_455  A
C624        C625   1.407       .  A
C625        C626   1.411       .  A
C625        H630   1.084       .  S
C626        C857   1.498       .  S
C626       C1591   1.424   1_455  A
C627        C812   1.491       .  S
C627       C1590   1.424       .  A
C627        C628   1.403       .  A
C628        H629   1.084       .  S
C631        C905   1.491       .  S
C631        C632   1.417       .  A
C631        C636   1.407       .  A
C632        C701   1.485       .  S
C632        C633   1.406       .  A
C633        C634   1.404       .  A
C633        H638   1.084       .  S
C634        C824   1.495       .  S
C634        C635   1.420       .  A
C635        C749   1.488       .  S
C635        C636   1.404       .  A
C636        H637   1.084       .  S
C639        C692   1.488       .  S
C639        C644   1.402       .  A
C640        C944   1.487       .  S
C640        C641   1.409       .  A
C641        C642   1.409       .  A
C641        H646   1.083       .  S
C642        C872   1.510       .  S
C643        C764   1.490       .  S
C643        C644   1.407       .  A
C644        H645   1.084       .  S
C647        C677   1.490       .  S
C647        C652   1.406       .  A
C648        C953   1.478       .  S
C648        C649   1.401       .  A
C649        C650   1.403       .  A
C649        H654   1.084       .  S
C650        C881   1.492       .  S
C651        C776   1.502       .  S
C651        C652   1.409       .  A
C652        H653   1.084       .  S
O655       Cr673   1.989       .  S
O655        C663   1.263       .  A
O656       Cr673   2.014       .  S
O656        C657   1.266       .  A
C657        O658   1.263       .  A
C657        C689   1.494       .  S
O658       Cr674   1.991       .  S
O659       Cr674   2.008       .  S
O659        C660   1.266       .  A
C660        O661   1.261       .  A
C660        C704   1.484       .  S
O661       Cr675   1.982       .  S
O662       Cr675   2.006       .  S
O662        C663   1.266       .  A
C663        C716   1.492       .  S
O664       Cr673   2.013       .  S
O664        C672   1.267       .  A
O665       Cr673   1.976       .  S
O665        C666   1.261       .  A
C666        O667   1.267       .  A
C666        C680   1.489       .  S
O667       Cr674   2.018       .  S
O668       Cr674   1.975       .  S
O668        C669   1.262       .  A
C669        O670   1.265       .  A
C669        C728   1.483       .  S
O670       Cr675   2.011       .  S
O671       Cr675   1.978       .  S
O671        C672   1.261       .  A
C672        C740   1.484       .  S
Cr673       O676   1.774       .  S
Cr674       O676   1.777       .  S
Cr675       O676   1.778       .  S
C677        C678   1.403       .  A
C677        C682   1.410       .  A
C678        C679   1.397       .  A
C678        H683   1.084       .  S
C679        C680   1.411       .  A
C679        O684   1.372       .  S
C680        C681   1.409       .  A
C681        C682   1.407       .  A
C681        H685   1.083       .  S
C682        O686   1.371       .  S
O684        H688   0.992       .  S
O686        H687   0.992       .  S
C689        C690   1.407       .  A
C689        C694   1.416       .  A
C690        C691   1.404       .  A
C690        H695   1.083       .  S
C691        C692   1.408       .  A
C691        O696   1.371       .  S
C692        C693   1.401       .  A
C693        C694   1.406       .  A
C693        H697   1.084       .  S
C694        O698   1.372       .  S
O696        H700   0.991       .  S
O698        H699   0.992       .  S
C701        C702   1.402       .  A
C701        C706   1.408       .  A
C702        C703   1.400       .  A
C702        H707   1.084       .  S
C703        C704   1.414       .  A
C703        O708   1.372       .  S
C704        C705   1.405       .  A
C705        C706   1.403       .  A
C705        H709   1.083       .  S
C706        O710   1.372       .  S
O708        H712   0.992       .  S
O710        H711   0.992       .  S
C713        C714   1.402       .  A
C713        C718   1.403       .  A
C714        C715   1.404       .  A
C714        H719   1.084       .  S
C715        C716   1.413       .  A
C715        O720   1.371       .  S
C716        C717   1.411       .  A
C717        C718   1.401       .  A
C717        H721   1.083       .  S
C718        O722   1.371       .  S
O720        H724   0.992       .  S
O722        H723   0.992       .  S
C725        C726   1.402       .  A
C725        C730   1.406       .  A
C726        C727   1.396       .  A
C726        H731   1.084       .  S
C727        C728   1.409       .  A
C727        O732   1.372       .  S
C728        C729   1.409       .  A
C729        C730   1.405       .  A
C729        H733   1.083       .  S
C730        O734   1.371       .  S
O732        H736   0.992       .  S
O734        H735   0.992       .  S
C737        C738   1.404       .  A
C737        C742   1.409       .  A
C738        C739   1.401       .  A
C738        H743   1.084       .  S
C739        C740   1.411       .  A
C739        O744   1.372       .  S
C740        C741   1.406       .  A
C741        C742   1.403       .  A
C741        H745   1.084       .  S
C742        O746   1.371       .  S
O744        H748   0.992       .  S
O746        H747   0.992       .  S
C749        C750   1.406       .  A
C749        C754   1.409       .  A
C750        C751   1.403       .  A
C750        H755   1.083       .  S
C751        C752   1.408       .  A
C751        O756   1.371       .  S
C752        C753   1.403       .  A
C753        C754   1.401       .  A
C753        H757   1.084       .  S
C754        O758   1.374       .  S
O756        H760   0.992       .  S
O758        H759   0.992       .  S
C761        C762   1.402       .  A
C761        C766   1.409       .  A
C762        C763   1.403       .  A
C762        H767   1.083       .  S
C763        C764   1.413       .  A
C763        O768   1.372       .  S
C764        C765   1.404       .  A
C765        C766   1.395       .  A
C766        O770   1.372       .  S
O768        H772   0.992       .  S
C773        C774   1.407       .  A
C773        C778   1.412       .  A
C774        C775   1.400       .  A
C774        H779   1.083       .  S
C775        C776   1.412       .  A
C776        C777   1.407       .  A
C777        C778   1.403       .  A
C777        H781   1.083       .  S
C778        O782   1.374       .  S
O780        H784   0.991       .  S
O782        H783   0.992       .  S
C785        C786   1.402       .  A
C785        C790   1.407       .  A
C786        C787   1.401       .  A
C786        H791   1.084       .  S
C787        C788   1.415       .  A
C787        O792   1.371       .  S
C788        C789   1.404       .  A
C789        C790   1.400       .  A
C789        H793   1.083       .  S
C790        O794   1.372       .  S
O792        H796   0.991       .  S
O794        H795   0.992       .  S
C797        C798   1.407       .  A
C797        C802   1.412       .  A
C798        C799   1.398       .  A
C798        H803   1.083       .  S
C799        C800   1.410       .  A
C799       O1768   1.371       .  S
C800        C801   1.406       .  A
C801        C802   1.403       .  A
C801        H805   1.083       .  S
C802        O806   1.374       .  S
O804       C1763   1.371       .  S
O804        H808   0.991       .  S
O806        H807   0.992       .  S
C809        C810   1.402       .  A
C809        C814   1.413       .  A
C810        C811   1.394       .  A
C810        H815   1.084       .  S
C811        C812   1.411       .  A
C811        O816   1.371       .  S
C812        C813   1.405       .  A
C813        C814   1.403       .  A
C813       H1781   1.083       .  S
C814        O818   1.373       .  S
O816        H820   0.992       .  S
H817       C1777   1.083       .  S
O818       H1783   0.992       .  S
H819       O1782   0.992       .  S
C821        C822   1.407       .  A
C821        C826   1.413       .  A
C822        C823   1.403       .  A
C822        H827   1.082       .  S
C823        C824   1.409       .  A
C823        O828   1.376       .  S
C824        C825   1.406       .  A
C825        C826   1.400       .  A
C825        H829   1.083       .  S
C826        O830   1.372       .  S
O828        H832   0.992       .  S
O830        H831   0.992       .  S
C833        C834   1.407       .  A
C833        C838   1.411       .  A
C834        C835   1.398       .  A
C834        H839   1.083       .  S
C835        C836   1.410       .  A
C835        O840   1.371       .  S
C836        C837   1.405       .  A
C837        C838   1.400       .  A
C837        H841   1.083       .  S
C838        O842   1.374       .  S
O840        H844   0.991       .  S
O842        H843   0.992       .  S
C845        C846   1.404       .  A
C845        C850   1.407       .  A
C846        C847   1.399       .  A
C846        H851   1.084       .  S
C847        C848   1.410       .  A
C847        O852   1.371   1_455  S
C848        C849   1.406       .  A
C849        C850   1.403       .  A
C849        H853   1.083       .  S
C850        O854   1.371       .  S
O852        H856   0.992   1_655  S
O854        H855   0.992       .  S
C857        C858   1.409       .  A
C857        C862   1.411       .  A
C858        C859   1.404       .  A
C858        H863   1.083   1_455  S
C859        C860   1.407       .  A
C859        O864   1.373       .  S
C860        C861   1.403       .  A
C861        C862   1.401       .  A
C861        H865   1.084       .  S
C862        O866   1.371       .  S
O864        H868   0.992       .  S
O866        H867   0.992       .  S
C869        C870   1.408       .  A
C869        C874   1.412       .  A
C870        C871   1.408       .  A
C870        H875   1.083       .  S
C871        C872   1.414       .  A
C872        C873   1.409       .  A
C873        C874   1.405       .  A
C873        H877   1.082       .  S
C874        O878   1.375       .  S
O876        H880   0.992       .  S
O878        H879   0.992       .  S
C881        C882   1.404       .  A
C881        C886   1.414       .  A
C882        C883   1.397       .  A
C882        H887   1.083       .  S
C883        C884   1.409       .  A
C883        O888   1.373       .  S
C884        C885   1.403       .  A
C885        C886   1.401       .  A
C885        H889   1.083       .  S
C886        O890   1.372       .  S
O888        H892   0.992       .  S
O890        H891   0.992       .  S
C893        C894   1.408       .  A
C893        C898   1.412       .  A
C894        C895   1.400       .  A
C894        H899   1.083       .  S
C895        C896   1.402       .  A
C895        O900   1.371       .  S
C896        C897   1.404       .  A
C897        C898   1.404       .  A
C897        H901   1.084       .  S
C898        O902   1.372       .  S
O900        H904   0.992       .  S
O902        H903   0.992       .  S
C905        C906   1.405       .  A
C905        C910   1.410       .  A
C906        C907   1.405       .  A
C906        H911   1.083       .  S
C907        C908   1.413       .  A
C907        O912   1.372       .  S
C908        C909   1.403       .  A
C909        C910   1.399       .  A
C909        H913   1.084       .  S
C910        O914   1.371       .  S
O912        H916   0.992       .  S
O914        H915   0.992       .  S
C917        C918   1.402       .  A
C917        C922   1.407       .  A
C918        C919   1.406       .  A
C918        H923   1.083       .  S
C919        C920   1.413       .  A
C919        O924   1.371       .  S
C920        C921   1.403       .  A
C921        C922   1.396       .  A
C921        H925   1.084       .  S
C922        O926   1.372       .  S
O924        H928   0.992       .  S
O926        H927   0.992       .  S
C929        C930   1.408       .  A
C929        C934   1.411       .  A
C930        C931   1.401       .  A
C930        H935   1.084       .  S
C931        C932   1.408       .  A
C931        O936   1.372       .  S
C932        C933   1.404       .  A
C933        C934   1.402       .  A
C933        H937   1.084       .  S
C934        O938   1.371       .  S
O936        H940   0.992       .  S
O938        H939   0.992       .  S
C941        C942   1.404       .  A
C941        C946   1.415       .  A
C942        C943   1.398       .  A
C942        H947   1.084       .  S
C943        C944   1.409       .  A
C943        O948   1.373       .  S
C944        C945   1.403       .  A
C945        C946   1.406       .  A
C945        H949   1.083       .  S
C946        O950   1.371       .  S
O948        H952   0.992       .  S
O950        H951   0.992       .  S
C953        C954   1.399       .  A
C953        C958   1.408       .  A
C954        C955   1.400       .  A
C954        H959   1.084       .  S
C955        C956   1.414       .  A
C955        O960   1.372       .  S
C956        C957   1.404       .  A
C957        C958   1.401       .  A
C957        H961   1.084       .  S
C958        O962   1.372       .  S
O960        H964   0.992       .  S
O962        H963   0.991       .  S
O965       Cr983   1.985       .  S
O965        C973   1.261       .  A
O966       Cr983   2.008       .  S
O966        C967   1.265       .  A
C967        O968   1.261       .  A
C967       C1411   1.487       .  S
O968       Cr984   1.985       .  S
O969       Cr984   2.005       .  S
O969        C970   1.266       .  A
C970        O971   1.263       .  A
C970       C1375   1.487       .  S
O971       Cr985   1.990       .  S
O972       Cr985   2.003       .  S
O972        C973   1.264       .  A
C973       C1438   1.481       .  S
O974       Cr983   2.013       .  S
O974        C982   1.267       .  A
O975       Cr983   1.971       .  S
O975        C976   1.261       .  A
C976        O977   1.266       .  A
C976       C1402   1.480       .  S
O977       Cr984   2.010       .  S
O978       Cr984   1.980       .  S
O978        C979   1.262       .  A
C979        O980   1.265       .  A
C979       C1390   1.484       .  S
O980       Cr985   2.009       .  S
O981       Cr985   1.978       .  S
O981        C982   1.263       .  A
C982       C1423   1.487       .  S
Cr983       O986   1.774       .  S
Cr984       O986   1.773       .  S
Cr985       O986   1.773       .  S
N987        C992   1.355       .  A
N987        C991   1.353       .  A
N987       H1019   1.032       .  S
N988        C995   1.352       .  A
N988        C996   1.353   1_554  A
N989        C994   1.358       .  A
N989        C993   1.360       .  A
N989       H1020   1.040       .  S
N990        C997   1.353   1_556  A
N990        C998   1.351       .  A
C991        C999   1.387       .  A
C991       C1007   1.418       .  A
C992       C1008   1.420       .  A
C992       C1000   1.389       .  A
C993       C1001   1.387       .  A
C993       C1010   1.426       .  A
C994       C1009   1.421       .  A
C994       C1002   1.386       .  A
C995       C1007   1.420       .  A
C995       C1003   1.387       .  A
C996       C1010   1.421       .  A
C996       C1004   1.386       .  A
C997       C1005   1.386       .  A
C997       C1008   1.419       .  A
C998       C1006   1.388       .  A
C998       C1009   1.418       .  A
C999       C1000   1.370       .  A
C999       H1011   1.082       .  S
C1000      H1012   1.082       .  S
C1001      C1002   1.371       .  A
C1001      H1013   1.082       .  S
C1002      H1014   1.080       .  S
C1003      C1004   1.372   1_554  A
C1003      H1015   1.080       .  S
C1004      H1016   1.081       .  S
C1005      C1006   1.375   1_554  A
C1005      H1017   1.082       .  S
C1006      H1018   1.082       .  S
C1007      C1366   1.491       .  S
C1008      C1327   1.491       .  S
C1009      C1342   1.493       .  S
C1010      C1351   1.511       .  S
N1021      C1026   1.352       .  A
N1021      C1507   1.352       .  A
N1021      H1053   1.044       .  S
N1022      C1029   1.345       .  A
N1022      C1030   1.347   1_556  A
N1023      C1028   1.350       .  A
N1023      C1509   1.352       .  A
N1023      H1054   1.044       .  S
N1024      C1031   1.348       .  A
N1024      C1032   1.348   1_556  A
C1025      N1503   1.352   1_545  A
C1025      C1033   1.388       .  A
C1025      C1041   1.417       .  A
C1026      C1042   1.417       .  A
C1026      C1034   1.387       .  A
C1027      N1505   1.352   1_545  A
C1027      C1035   1.387       .  A
C1027      C1044   1.415       .  A
C1028      C1043   1.414       .  A
C1028      C1036   1.387       .  A
C1029      C1041   1.407       .  A
C1029      C1037   1.386       .  A
C1030      C1044   1.410       .  A
C1030      C1038   1.387       .  A
C1031      C1039   1.387       .  A
C1031      C1042   1.413       .  A
C1032      C1040   1.386       .  A
C1032      C1043   1.410       .  A
C1033      C1516   1.380   1_545  A
C1033      H1045   1.082       .  S
C1034      C1515   1.380       .  A
C1034      H1046   1.082       .  S
C1035      C1518   1.380   1_545  A
C1035      H1047   1.082       .  S
C1036      C1517   1.380       .  A
C1036      H1048   1.082       .  S
C1037      C1038   1.379   1_556  A
C1037      H1049   1.082       .  S
C1038      H1050   1.082       .  S
C1039      C1040   1.379   1_556  A
C1039      H1051   1.082       .  S
C1040      H1052   1.082       .  S
C1041      C1291   1.492       .  S
C1042      C1303   1.501       .  S
C1043      C1315   1.495       .  S
C1044      C1279   1.499       .  S
N1055      C1059   1.356   1_455  A
N1055      H1087   1.040       .  S
N1056      C1063   1.351       .  A
N1056      C1064   1.353   1_554  A
N1057      C1061   1.355       .  A
N1057      H1088   1.030   1_655  S
N1058      C1065   1.352   1_556  A
N1058      C1066   1.351       .  A
C1059      C1067   1.387       .  A
C1059      C1075   1.417       .  A
C1060      C1076   1.422       .  A
C1060      C1068   1.387       .  A
C1061      C1069   1.389       .  A
C1061      C1078   1.421       .  A
C1062      C1077   1.419       .  A
C1062      C1070   1.387       .  A
C1063      C1075   1.418       .  A
C1063      C1071   1.387       .  A
C1064      C1078   1.420       .  A
C1064      C1072   1.387       .  A
C1065      C1073   1.386       .  A
C1065      C1076   1.419       .  A
C1066      C1074   1.387       .  A
C1066      C1077   1.418       .  A
C1067      H1079   1.080       .  S
C1068      H1080   1.082       .  S
C1069      H1081   1.082       .  S
C1070      H1082   1.082       .  S
C1071      C1072   1.376   1_554  A
C1071      H1083   1.083       .  S
C1072      H1084   1.082       .  S
C1073      C1074   1.372   1_554  A
C1073      H1085   1.081       .  S
C1074      H1086   1.080       .  S
C1075      C1267   1.489       .  S
C1076      C1255   1.505       .  S
C1077      C1243   1.489       .  S
C1078      C1234   1.490       .  S
C1089      C1219   1.488       .  S
C1089      C1094   1.406       .  A
C1090      C1414   1.486       .  S
C1090      C1091   1.405       .  A
C1091      C1092   1.406       .  A
C1091      H1096   1.084       .  S
C1092      C1282   1.496       .  S
C1093      C1330   1.490       .  S
C1093      C1094   1.406       .  A
C1094      H1095   1.084       .  S
C1097      C1378   1.481       .  S
C1097      C1098   1.410       .  A
C1097      C1102   1.405       .  A
C1098      C1207   1.480       .  S
C1098      C1099   1.401       .  A
C1099      C1100   1.402       .  A
C1099      H1104   1.084       .  S
C1100      C1318   1.491       .  S
C1100      C1101   1.422       .  A
C1101      C1270   1.494       .  S
C1101      C1102   1.409       .  A
C1102      H1103   1.084       .  S
C1105      C1399   1.479       .  S
C1105      C1110   1.398       .  A
C1106      C1195   1.482       .  S
C1106      C1107   1.407       .  A
C1107      C1108   1.411       .  A
C1107      H1112   1.084       .  S
C1108      C1339   1.498       .  S
C1109      C1294   1.491       .  S
C1109      C1110   1.403       .  A
C1110      H1111   1.084       .  S
C1113      C1387   1.491       .  S
C1113      C1114   1.417       .  A
C1113      C1118   1.407       .  A
C1114      C1183   1.485       .  S
C1114      C1115   1.406       .  A
C1115      C1116   1.404       .  A
C1115      H1120   1.084       .  S
C1116      C1306   1.495       .  S
C1116      C1117   1.420       .  A
C1117      C1231   1.488       .  S
C1117      C1118   1.404       .  A
C1118      H1119   1.084       .  S
C1121      C1174   1.488       .  S
C1121      C1604   1.413       .  A
C1121      C1126   1.402       .  A
C1122      C1426   1.487       .  S
C1122      C1603   1.413   1_545  A
C1122      C1123   1.409       .  A
C1123      C1124   1.409       .  A
C1123      H1128   1.083       .  S
C1124      C1354   1.510       .  S
C1124      C1607   1.428   1_545  A
C1125      C1246   1.490       .  S
C1125      C1606   1.428       .  A
C1125      C1126   1.407       .  A
C1126      H1127   1.084       .  S
C1129      C1159   1.490       .  S
C1129      C1612   1.413       .  A
C1129      C1134   1.406       .  A
C1130      C1435   1.478       .  S
C1130      C1611   1.413   1_545  A
C1130      C1131   1.401       .  A
C1131      C1132   1.403       .  A
C1131      H1136   1.084       .  S
C1132      C1363   1.492       .  S
C1132      C1615   1.426   1_545  A
C1133      C1258   1.502       .  S
C1133      C1614   1.426       .  A
C1133      C1134   1.409       .  A
C1134      H1135   1.084       .  S
O1137     Cr1155   1.989       .  S
O1137      C1145   1.263       .  A
O1138     Cr1155   2.014       .  S
O1138      C1139   1.266       .  A
C1139      O1140   1.263       .  A
C1139      C1171   1.494       .  S
O1140     Cr1156   1.991       .  S
O1141     Cr1156   2.008       .  S
O1141      C1142   1.266       .  A
C1142      O1143   1.261       .  A
C1142      C1186   1.484       .  S
O1143     Cr1157   1.982       .  S
O1144     Cr1157   2.006       .  S
O1144      C1145   1.266       .  A
C1145      C1198   1.492       .  S
O1146     Cr1155   2.013       .  S
O1146      C1154   1.267       .  A
O1147     Cr1155   1.976       .  S
O1147      C1148   1.261       .  A
C1148      O1149   1.267       .  A
C1148      C1162   1.489       .  S
O1149     Cr1156   2.018       .  S
O1150     Cr1156   1.975       .  S
O1150      C1151   1.262       .  A
C1151      O1152   1.265       .  A
C1151      C1210   1.483       .  S
O1152     Cr1157   2.011       .  S
O1153     Cr1157   1.978       .  S
O1153      C1154   1.261       .  A
C1154      C1222   1.484       .  S
Cr1155     O1158   1.774       .  S
Cr1156     O1158   1.777       .  S
Cr1157     O1158   1.778       .  S
C1159      C1160   1.403       .  A
C1159      C1164   1.410       .  A
C1160      C1161   1.397       .  A
C1160      H1165   1.084       .  S
C1161      C1162   1.411       .  A
C1161      O1166   1.372       .  S
C1162      C1163   1.409       .  A
C1163      C1164   1.407       .  A
C1163      H1167   1.083       .  S
C1164      O1168   1.371       .  S
O1166      H1170   0.992       .  S
O1168      H1169   0.992       .  S
C1171      C1172   1.407       .  A
C1171      C1176   1.416       .  A
C1172      C1173   1.404       .  A
C1172      H1177   1.083       .  S
C1173      C1174   1.408       .  A
C1173      O1178   1.371       .  S
C1174      C1175   1.401       .  A
C1175      C1176   1.406       .  A
C1175      H1179   1.084       .  S
C1176      O1180   1.372       .  S
O1178      H1182   0.991       .  S
O1180      H1181   0.992       .  S
C1183      C1184   1.402       .  A
C1183      C1188   1.408       .  A
C1184      C1185   1.400       .  A
C1184      H1189   1.084       .  S
C1185      C1186   1.414       .  A
C1185      O1190   1.372       .  S
C1186      C1187   1.405       .  A
C1187      C1188   1.403       .  A
C1187      H1191   1.083       .  S
C1188      O1192   1.372       .  S
O1190      H1194   0.992       .  S
O1192      H1193   0.992       .  S
C1195      C1196   1.402       .  A
C1195      C1200   1.403       .  A
C1196      C1197   1.404       .  A
C1196      H1201   1.084       .  S
C1197      C1198   1.413       .  A
C1197      O1202   1.371       .  S
C1198      C1199   1.411       .  A
C1199      C1200   1.401       .  A
C1199      H1203   1.083       .  S
C1200      O1204   1.371       .  S
O1202      H1206   0.992       .  S
O1204      H1205   0.992       .  S
C1207      C1208   1.402       .  A
C1207      C1212   1.406       .  A
C1208      C1209   1.396       .  A
C1208      H1213   1.084       .  S
C1209      C1210   1.409       .  A
C1209      O1214   1.372       .  S
C1210      C1211   1.409       .  A
C1211      C1212   1.405       .  A
C1211      H1215   1.083       .  S
C1212      O1216   1.371       .  S
O1214      H1218   0.992       .  S
O1216      H1217   0.992       .  S
C1219      C1220   1.404       .  A
C1219      C1224   1.409       .  A
C1220      C1221   1.401       .  A
C1220      H1225   1.084       .  S
C1221      C1222   1.411       .  A
C1221      O1226   1.372       .  S
C1222      C1223   1.406       .  A
C1223      C1224   1.403       .  A
C1223      H1227   1.084       .  S
C1224      O1228   1.371       .  S
O1226      H1230   0.992       .  S
O1228      H1229   0.992       .  S
C1231      C1232   1.406       .  A
C1231      C1236   1.409       .  A
C1232      C1233   1.403       .  A
C1232      H1237   1.083       .  S
C1233      C1234   1.408       .  A
C1233      O1238   1.371       .  S
C1234      C1235   1.403       .  A
C1235      C1236   1.401       .  A
C1235      H1239   1.084       .  S
C1236      O1240   1.374       .  S
O1238      H1242   0.992       .  S
O1240      H1241   0.992       .  S
C1243      C1244   1.402       .  A
C1243      C1248   1.409       .  A
C1244      C1245   1.403       .  A
C1244      H1249   1.083       .  S
C1245      C1246   1.413       .  A
C1245      O1250   1.372       .  S
C1246      C1247   1.404       .  A
C1247      C1248   1.395       .  A
C1247      H1733   1.084       .  S
C1248      O1252   1.372       .  S
O1250      H1254   0.992       .  S
H1251      C1729   1.084       .  S
O1252      H1735   0.992       .  S
H1253      O1734   0.992       .  S
C1255      C1256   1.407       .  A
C1255      C1260   1.412       .  A
C1256      C1257   1.400       .  A
C1256      H1261   1.083       .  S
C1257      C1258   1.412       .  A
C1257      O1744   1.371       .  S
C1258      C1259   1.407       .  A
C1259      C1260   1.403       .  A
C1259      H1263   1.083       .  S
C1260      O1264   1.374       .  S
O1262      C1739   1.371   1_545  S
O1262      H1266   0.991   1_545  S
O1264      H1265   0.992       .  S
C1267      C1268   1.402       .  A
C1267      C1272   1.407       .  A
C1268      C1269   1.401       .  A
C1268      H1273   1.084       .  S
C1269      C1270   1.415       .  A
C1269      O1274   1.371       .  S
C1270      C1271   1.404       .  A
C1271      C1272   1.400       .  A
C1271      H1275   1.083       .  S
C1272      O1276   1.372       .  S
O1274      H1278   0.991       .  S
O1276      H1277   0.992       .  S
C1279      C1280   1.407       .  A
C1279      C1284   1.412       .  A
C1280      C1281   1.398       .  A
C1280      H1285   1.083       .  S
C1281      C1282   1.410       .  A
C1282      C1283   1.406       .  A
C1283      C1284   1.403       .  A
C1283      H1287   1.083       .  S
C1284      O1288   1.374       .  S
O1286      H1290   0.991       .  S
O1288      H1289   0.992       .  S
C1291      C1292   1.402       .  A
C1291      C1296   1.413       .  A
C1292      C1293   1.394       .  A
C1292      H1297   1.084       .  S
C1293      C1294   1.411       .  A
C1293      O1298   1.371       .  S
C1294      C1295   1.405       .  A
C1295      C1296   1.403       .  A
C1296      O1300   1.373       .  S
O1298      H1302   0.992       .  S
C1303      C1304   1.407       .  A
C1303      C1308   1.413       .  A
C1304      C1305   1.403       .  A
C1304      H1309   1.082       .  S
C1305      C1306   1.409       .  A
C1305      O1310   1.376       .  S
C1306      C1307   1.406       .  A
C1307      C1308   1.400       .  A
C1307      H1311   1.083       .  S
C1308      O1312   1.372       .  S
O1310      H1314   0.992       .  S
O1312      H1313   0.992       .  S
C1315      C1316   1.407       .  A
C1315      C1320   1.411       .  A
C1316      C1317   1.398       .  A
C1316      H1321   1.083       .  S
C1317      C1318   1.410       .  A
C1317      O1322   1.371       .  S
C1318      C1319   1.405       .  A
C1319      C1320   1.400       .  A
C1319      H1323   1.083       .  S
C1320      O1324   1.374       .  S
O1322      H1326   0.991       .  S
O1324      H1325   0.992       .  S
C1327      C1328   1.404       .  A
C1327      C1332   1.407       .  A
C1328      C1329   1.399       .  A
C1328      H1333   1.084       .  S
C1329      C1330   1.410       .  A
C1329      O1334   1.371       .  S
C1330      C1331   1.406       .  A
C1331      C1332   1.403       .  A
C1331      H1335   1.083       .  S
C1332      O1336   1.371       .  S
O1334      H1338   0.992       .  S
O1336      H1337   0.992       .  S
C1339      C1340   1.409       .  A
C1339      C1344   1.411       .  A
C1340      C1341   1.404       .  A
C1340      H1345   1.083       .  S
C1341      C1342   1.407       .  A
C1341      O1346   1.373       .  S
C1342      C1343   1.403       .  A
C1343      C1344   1.401       .  A
C1343      H1347   1.084       .  S
C1344      O1348   1.371       .  S
O1346      H1350   0.992       .  S
O1348      H1349   0.992       .  S
C1351      C1352   1.408       .  A
C1351      C1356   1.412       .  A
C1352      C1353   1.408       .  A
C1352      H1357   1.083       .  S
C1353      C1354   1.414       .  A
C1353      O1840   1.376   1_545  S
C1354      C1355   1.409       .  A
C1355      C1356   1.405       .  A
C1355      H1359   1.082       .  S
C1356      O1360   1.375       .  S
O1358      C1835   1.376       .  S
O1358      H1362   0.992       .  S
O1360      H1361   0.992       .  S
C1363      C1364   1.404       .  A
C1363      C1368   1.414       .  A
C1364      C1365   1.397       .  A
C1364      H1369   1.083       .  S
C1365      C1366   1.409       .  A
C1365      O1370   1.373       .  S
C1366      C1367   1.403       .  A
C1367      C1368   1.401       .  A
C1367      H1371   1.083       .  S
C1368      O1372   1.372       .  S
O1370      H1374   0.992       .  S
O1372      H1373   0.992       .  S
C1375      C1376   1.408       .  A
C1375      C1380   1.412       .  A
C1376      C1377   1.400       .  A
C1376      H1381   1.083       .  S
C1377      C1378   1.402       .  A
C1377      O1382   1.371       .  S
C1378      C1379   1.404       .  A
C1379      C1380   1.404       .  A
C1379      H1383   1.084       .  S
C1380      O1384   1.372       .  S
O1382      H1386   0.992       .  S
O1384      H1385   0.992       .  S
C1387      C1388   1.405       .  A
C1387      C1392   1.410       .  A
C1388      C1389   1.405       .  A
C1388      H1393   1.083       .  S
C1389      C1390   1.413       .  A
C1389      O1394   1.372       .  S
C1390      C1391   1.403       .  A
C1391      C1392   1.399       .  A
C1391      H1395   1.084       .  S
C1392      O1396   1.371       .  S
O1394      H1398   0.992       .  S
O1396      H1397   0.992       .  S
C1399      C1400   1.402       .  A
C1399      C1404   1.407       .  A
C1400      C1401   1.406       .  A
C1400      H1405   1.083       .  S
C1401      C1402   1.413       .  A
C1401      O1406   1.371       .  S
C1402      C1403   1.403       .  A
C1403      C1404   1.396       .  A
C1403      H1407   1.084       .  S
C1404      O1408   1.372       .  S
O1406      H1410   0.992       .  S
O1408      H1409   0.992       .  S
C1411      C1412   1.408       .  A
C1411      C1416   1.411       .  A
C1412      C1413   1.401       .  A
C1412      H1417   1.084       .  S
C1413      C1414   1.408       .  A
C1413      O1418   1.372       .  S
C1414      C1415   1.404       .  A
C1415      C1416   1.402       .  A
C1415      H1419   1.084       .  S
C1416      O1420   1.371       .  S
O1418      H1422   0.992       .  S
O1420      H1421   0.992       .  S
C1423      C1424   1.404       .  A
C1423      C1428   1.415       .  A
C1424      C1425   1.398       .  A
C1424      H1429   1.084       .  S
C1425      C1426   1.409       .  A
C1425      O1430   1.373       .  S
C1426      C1427   1.403       .  A
C1427      C1428   1.406       .  A
C1427      H1431   1.083       .  S
C1428      O1432   1.371       .  S
O1430      H1434   0.992       .  S
O1432      H1433   0.992       .  S
C1435      C1436   1.399       .  A
C1435      C1440   1.408       .  A
C1436      C1437   1.400       .  A
C1436      H1441   1.084       .  S
C1437      C1438   1.414       .  A
C1437      O1442   1.372       .  S
C1438      C1439   1.404       .  A
C1439      C1440   1.401       .  A
C1439      H1443   1.084       .  S
C1440      O1444   1.372       .  S
O1442      H1446   0.992       .  S
O1444      H1445   0.991       .  S
O1447     Cr1465   1.985       .  S
O1447      C1455   1.261       .  A
O1448     Cr1465   2.008       .  S
O1448      C1449   1.265       .  A
C1449      O1450   1.261       .  A
C1449      C1893   1.487       .  S
O1450     Cr1466   1.985       .  S
O1451     Cr1466   2.005       .  S
O1451      C1452   1.266       .  A
C1452      O1453   1.263       .  A
C1452      C1857   1.487       .  S
O1453     Cr1467   1.990       .  S
O1454     Cr1467   2.003       .  S
O1454      C1455   1.264       .  A
C1455      C1920   1.481       .  S
O1456     Cr1465   2.013       .  S
O1456      C1464   1.267       .  A
O1457     Cr1465   1.971       .  S
O1457      C1458   1.261       .  A
C1458      O1459   1.266       .  A
C1458      C1884   1.480       .  S
O1459     Cr1466   2.010       .  S
O1460     Cr1466   1.980       .  S
O1460      C1461   1.262       .  A
C1461      O1462   1.265       .  A
C1461      C1872   1.484       .  S
O1462     Cr1467   2.009       .  S
O1463     Cr1467   1.978       .  S
O1463      C1464   1.263       .  A
C1464      C1905   1.487       .  S
Cr1465     O1468   1.774       .  S
Cr1466     O1468   1.773       .  S
Cr1467     O1468   1.773       .  S
N1469      C1474   1.355       .  A
N1469      C1473   1.353       .  A
N1469      H1501   1.032       .  S
N1470      C1477   1.352       .  A
N1470      C1478   1.353   1_554  A
N1471      C1476   1.358       .  A
N1471      C1475   1.360       .  A
N1471      H1502   1.040       .  S
N1472      C1479   1.353   1_556  A
N1472      C1480   1.351       .  A
C1473      C1481   1.387       .  A
C1473      C1489   1.418       .  A
C1474      C1490   1.420       .  A
C1474      C1482   1.389       .  A
C1475      C1483   1.387       .  A
C1475      C1492   1.426       .  A
C1476      C1491   1.421       .  A
C1476      C1484   1.386       .  A
C1477      C1489   1.420       .  A
C1477      C1485   1.387       .  A
C1478      C1492   1.421       .  A
C1478      C1486   1.386       .  A
C1479      C1487   1.386       .  A
C1479      C1490   1.419       .  A
C1480      C1488   1.388       .  A
C1480      C1491   1.418       .  A
C1481      C1482   1.370       .  A
C1481      H1493   1.082       .  S
C1482      H1494   1.082       .  S
C1483      C1484   1.371       .  A
C1483      H1495   1.082       .  S
C1484      H1496   1.080       .  S
C1485      C1486   1.372   1_554  A
C1485      H1497   1.080       .  S
C1486      H1498   1.081       .  S
C1487      C1488   1.375   1_554  A
C1487      H1499   1.082       .  S
C1488      H1500   1.082       .  S
C1489      C1848   1.491       .  S
C1490      C1809   1.491       .  S
C1491      C1824   1.493       .  S
C1492      C1833   1.511       .  S
N1503      C1508   1.352       .  A
N1503      H1535   1.044       .  S
N1504      C1511   1.345       .  A
N1504      C1512   1.347   1_556  A
N1505      C1510   1.350       .  A
N1505      H1536   1.044       .  S
N1506      C1513   1.348       .  A
N1506      C1514   1.348   1_556  A
C1507      C1515   1.388       .  A
C1507      C1523   1.417       .  A
C1508      C1524   1.417       .  A
C1508      C1516   1.387       .  A
C1509      C1517   1.387       .  A
C1509      C1526   1.415       .  A
C1510      C1525   1.414       .  A
C1510      C1518   1.387       .  A
C1511      C1523   1.407       .  A
C1511      C1519   1.386       .  A
C1512      C1526   1.410       .  A
C1512      C1520   1.387       .  A
C1513      C1521   1.387       .  A
C1513      C1524   1.413       .  A
C1514      C1522   1.386       .  A
C1514      C1525   1.410       .  A
C1515      H1527   1.082       .  S
C1516      H1528   1.082       .  S
C1517      H1529   1.082       .  S
C1518      H1530   1.082       .  S
C1519      C1520   1.379   1_556  A
C1519      H1531   1.082       .  S
C1520      H1532   1.082       .  S
C1521      C1522   1.379   1_556  A
C1521      H1533   1.082       .  S
C1522      H1534   1.082       .  S
C1523      C1773   1.492       .  S
C1524      C1785   1.501       .  S
C1525      C1797   1.495       .  S
C1526      C1761   1.499       .  S
N1537      C1541   1.356   1_455  A
N1537      H1569   1.040       .  S
N1538      C1545   1.351       .  A
N1538      C1546   1.353   1_554  A
N1539      C1543   1.355       .  A
N1539      H1570   1.030   1_655  S
N1540      C1547   1.352   1_556  A
N1540      C1548   1.351       .  A
C1541      C1549   1.387       .  A
C1541      C1557   1.417       .  A
C1542      C1558   1.422       .  A
C1542      C1550   1.387       .  A
C1543      C1551   1.389       .  A
C1543      C1560   1.421       .  A
C1544      C1559   1.419       .  A
C1544      C1552   1.387       .  A
C1545      C1557   1.418       .  A
C1545      C1553   1.387       .  A
C1546      C1560   1.420       .  A
C1546      C1554   1.387       .  A
C1547      C1555   1.386       .  A
C1547      C1558   1.419       .  A
C1548      C1556   1.387       .  A
C1548      C1559   1.418       .  A
C1549      H1561   1.080       .  S
C1550      H1562   1.082       .  S
C1551      H1563   1.082       .  S
C1552      H1564   1.082       .  S
C1553      C1554   1.376   1_554  A
C1553      H1565   1.083       .  S
C1554      H1566   1.082       .  S
C1555      C1556   1.372   1_554  A
C1555      H1567   1.081       .  S
C1556      H1568   1.080       .  S
C1557      C1749   1.489       .  S
C1558      C1737   1.505       .  S
C1559      C1725   1.489       .  S
C1560      C1716   1.490       .  S
C1571      C1701   1.488       .  S
C1571      C1576   1.406       .  A
C1572      C1896   1.486       .  S
C1572      C1573   1.405       .  A
C1573      C1574   1.406       .  A
C1573      H1578   1.084       .  S
C1574      C1764   1.496       .  S
C1575      C1812   1.490       .  S
C1575      C1576   1.406       .  A
C1576      H1577   1.084       .  S
C1579      C1860   1.481       .  S
C1579      C1580   1.410       .  A
C1579      C1584   1.405       .  A
C1580      C1689   1.480       .  S
C1580      C1581   1.401       .  A
C1581      C1582   1.402       .  A
C1581      H1586   1.084       .  S
C1582      C1800   1.491       .  S
C1582      C1583   1.422       .  A
C1583      C1752   1.494       .  S
C1583      C1584   1.409       .  A
C1584      H1585   1.084       .  S
C1587      C1881   1.479       .  S
C1587      C1592   1.398       .  A
C1588      C1677   1.482       .  S
C1588      C1589   1.407       .  A
C1589      C1590   1.411       .  A
C1589      H1594   1.084       .  S
C1590      C1821   1.498       .  S
C1591      C1776   1.491       .  S
C1591      C1592   1.403       .  A
C1592      H1593   1.084       .  S
C1595      C1869   1.491       .  S
C1595      C1596   1.417       .  A
C1595      C1600   1.407       .  A
C1596      C1665   1.485       .  S
C1596      C1597   1.406       .  A
C1597      C1598   1.404       .  A
C1597      H1602   1.084       .  S
C1598      C1788   1.495       .  S
C1598      C1599   1.420       .  A
C1599      C1713   1.488       .  S
C1599      C1600   1.404       .  A
C1600      H1601   1.084       .  S
C1603      C1656   1.488       .  S
C1603      C1608   1.402       .  A
C1604      C1908   1.487       .  S
C1604      C1605   1.409       .  A
C1605      C1606   1.409       .  A
C1605      H1610   1.083       .  S
C1606      C1836   1.510       .  S
C1607      C1728   1.490       .  S
C1607      C1608   1.407       .  A
C1608      H1609   1.084       .  S
C1611      C1641   1.490       .  S
C1611      C1616   1.406       .  A
C1612      C1917   1.478       .  S
C1612      C1613   1.401       .  A
C1613      C1614   1.403       .  A
C1613      H1618   1.084       .  S
C1614      C1845   1.492       .  S
C1615      C1740   1.502       .  S
C1615      C1616   1.409       .  A
C1616      H1617   1.084       .  S
O1619     Cr1637   1.989       .  S
O1619      C1627   1.263       .  A
O1620     Cr1637   2.014       .  S
O1620      C1621   1.266       .  A
C1621      O1622   1.263       .  A
C1621      C1653   1.494       .  S
O1622     Cr1638   1.991       .  S
O1623     Cr1638   2.008       .  S
O1623      C1624   1.266       .  A
C1624      O1625   1.261       .  A
C1624      C1668   1.484       .  S
O1625     Cr1639   1.982       .  S
O1626     Cr1639   2.006       .  S
O1626      C1627   1.266       .  A
C1627      C1680   1.492       .  S
O1628     Cr1637   2.013       .  S
O1628      C1636   1.267       .  A
O1629     Cr1637   1.976       .  S
O1629      C1630   1.261       .  A
C1630      O1631   1.267       .  A
C1630      C1644   1.489       .  S
O1631     Cr1638   2.018       .  S
O1632     Cr1638   1.975       .  S
O1632      C1633   1.262       .  A
C1633      O1634   1.265       .  A
C1633      C1692   1.483       .  S
O1634     Cr1639   2.011       .  S
O1635     Cr1639   1.978       .  S
O1635      C1636   1.261       .  A
C1636      C1704   1.484       .  S
Cr1637     O1640   1.774       .  S
Cr1638     O1640   1.777       .  S
Cr1639     O1640   1.778       .  S
C1641      C1642   1.403       .  A
C1641      C1646   1.410       .  A
C1642      C1643   1.397       .  A
C1642      H1647   1.084       .  S
C1643      C1644   1.411       .  A
C1643      O1648   1.372       .  S
C1644      C1645   1.409       .  A
C1645      C1646   1.407       .  A
C1645      H1649   1.083       .  S
C1646      O1650   1.371       .  S
O1648      H1652   0.992       .  S
O1650      H1651   0.992       .  S
C1653      C1654   1.407       .  A
C1653      C1658   1.416       .  A
C1654      C1655   1.404       .  A
C1654      H1659   1.083       .  S
C1655      C1656   1.408       .  A
C1655      O1660   1.371       .  S
C1656      C1657   1.401       .  A
C1657      C1658   1.406       .  A
C1657      H1661   1.084       .  S
C1658      O1662   1.372       .  S
O1660      H1664   0.991       .  S
O1662      H1663   0.992       .  S
C1665      C1666   1.402       .  A
C1665      C1670   1.408       .  A
C1666      C1667   1.400       .  A
C1666      H1671   1.084       .  S
C1667      C1668   1.414       .  A
C1667      O1672   1.372       .  S
C1668      C1669   1.405       .  A
C1669      C1670   1.403       .  A
C1669      H1673   1.083       .  S
C1670      O1674   1.372       .  S
O1672      H1676   0.992       .  S
O1674      H1675   0.992       .  S
C1677      C1678   1.402       .  A
C1677      C1682   1.403       .  A
C1678      C1679   1.404       .  A
C1678      H1683   1.084       .  S
C1679      C1680   1.413       .  A
C1679      O1684   1.371       .  S
C1680      C1681   1.411       .  A
C1681      C1682   1.401       .  A
C1681      H1685   1.083       .  S
C1682      O1686   1.371       .  S
O1684      H1688   0.992       .  S
O1686      H1687   0.992       .  S
C1689      C1690   1.402       .  A
C1689      C1694   1.406       .  A
C1690      C1691   1.396       .  A
C1690      H1695   1.084       .  S
C1691      C1692   1.409       .  A
C1691      O1696   1.372       .  S
C1692      C1693   1.409       .  A
C1693      C1694   1.405       .  A
C1693      H1697   1.083       .  S
C1694      O1698   1.371       .  S
O1696      H1700   0.992       .  S
O1698      H1699   0.992       .  S
C1701      C1702   1.404       .  A
C1701      C1706   1.409       .  A
C1702      C1703   1.401       .  A
C1702      H1707   1.084       .  S
C1703      C1704   1.411       .  A
C1703      O1708   1.372       .  S
C1704      C1705   1.406       .  A
C1705      C1706   1.403       .  A
C1705      H1709   1.084       .  S
C1706      O1710   1.371       .  S
O1708      H1712   0.992       .  S
O1710      H1711   0.992       .  S
C1713      C1714   1.406       .  A
C1713      C1718   1.409       .  A
C1714      C1715   1.403       .  A
C1714      H1719   1.083       .  S
C1715      C1716   1.408       .  A
C1715      O1720   1.371       .  S
C1716      C1717   1.403       .  A
C1717      C1718   1.401       .  A
C1717      H1721   1.084       .  S
C1718      O1722   1.374       .  S
O1720      H1724   0.992       .  S
O1722      H1723   0.992       .  S
C1725      C1726   1.402       .  A
C1725      C1730   1.409       .  A
C1726      C1727   1.403       .  A
C1726      H1731   1.083       .  S
C1727      C1728   1.413       .  A
C1727      O1732   1.372       .  S
C1728      C1729   1.404       .  A
C1729      C1730   1.395       .  A
C1730      O1734   1.372       .  S
O1732      H1736   0.992       .  S
C1737      C1738   1.407       .  A
C1737      C1742   1.412       .  A
C1738      C1739   1.400       .  A
C1738      H1743   1.083       .  S
C1739      C1740   1.412       .  A
C1740      C1741   1.407       .  A
C1741      C1742   1.403       .  A
C1741      H1745   1.083       .  S
C1742      O1746   1.374       .  S
O1744      H1748   0.991       .  S
O1746      H1747   0.992       .  S
C1749      C1750   1.402       .  A
C1749      C1754   1.407       .  A
C1750      C1751   1.401       .  A
C1750      H1755   1.084       .  S
C1751      C1752   1.415       .  A
C1751      O1756   1.371       .  S
C1752      C1753   1.404       .  A
C1753      C1754   1.400       .  A
C1753      H1757   1.083       .  S
C1754      O1758   1.372       .  S
O1756      H1760   0.991       .  S
O1758      H1759   0.992       .  S
C1761      C1762   1.407       .  A
C1761      C1766   1.412       .  A
C1762      C1763   1.398       .  A
C1762      H1767   1.083       .  S
C1763      C1764   1.410       .  A
C1764      C1765   1.406       .  A
C1765      C1766   1.403       .  A
C1765      H1769   1.083       .  S
C1766      O1770   1.374       .  S
O1768      H1772   0.991       .  S
O1770      H1771   0.992       .  S
C1773      C1774   1.402       .  A
C1773      C1778   1.413       .  A
C1774      C1775   1.394       .  A
C1774      H1779   1.084       .  S
C1775      C1776   1.411       .  A
C1775      O1780   1.371       .  S
C1776      C1777   1.405       .  A
C1777      C1778   1.403       .  A
C1778      O1782   1.373       .  S
O1780      H1784   0.992       .  S
C1785      C1786   1.407       .  A
C1785      C1790   1.413       .  A
C1786      C1787   1.403       .  A
C1786      H1791   1.082       .  S
C1787      C1788   1.409       .  A
C1787      O1792   1.376       .  S
C1788      C1789   1.406       .  A
C1789      C1790   1.400       .  A
C1789      H1793   1.083       .  S
C1790      O1794   1.372       .  S
O1792      H1796   0.992       .  S
O1794      H1795   0.992       .  S
C1797      C1798   1.407       .  A
C1797      C1802   1.411       .  A
C1798      C1799   1.398       .  A
C1798      H1803   1.083       .  S
C1799      C1800   1.410       .  A
C1799      O1804   1.371       .  S
C1800      C1801   1.405       .  A
C1801      C1802   1.400       .  A
C1801      H1805   1.083       .  S
C1802      O1806   1.374       .  S
O1804      H1808   0.991       .  S
O1806      H1807   0.992       .  S
C1809      C1810   1.404       .  A
C1809      C1814   1.407       .  A
C1810      C1811   1.399       .  A
C1810      H1815   1.084       .  S
C1811      C1812   1.410       .  A
C1811      O1816   1.371       .  S
C1812      C1813   1.406       .  A
C1813      C1814   1.403       .  A
C1813      H1817   1.083       .  S
C1814      O1818   1.371       .  S
O1816      H1820   0.992       .  S
O1818      H1819   0.992       .  S
C1821      C1822   1.409       .  A
C1821      C1826   1.411       .  A
C1822      C1823   1.404       .  A
C1822      H1827   1.083       .  S
C1823      C1824   1.407       .  A
C1823      O1828   1.373       .  S
C1824      C1825   1.403       .  A
C1825      C1826   1.401       .  A
C1825      H1829   1.084       .  S
C1826      O1830   1.371       .  S
O1828      H1832   0.992       .  S
O1830      H1831   0.992       .  S
C1833      C1834   1.408       .  A
C1833      C1838   1.412       .  A
C1834      C1835   1.408       .  A
C1834      H1839   1.083       .  S
C1835      C1836   1.414       .  A
C1836      C1837   1.409       .  A
C1837      C1838   1.405       .  A
C1837      H1841   1.082       .  S
C1838      O1842   1.375       .  S
O1840      H1844   0.992       .  S
O1842      H1843   0.992       .  S
C1845      C1846   1.404       .  A
C1845      C1850   1.414       .  A
C1846      C1847   1.397       .  A
C1846      H1851   1.083       .  S
C1847      C1848   1.409       .  A
C1847      O1852   1.373       .  S
C1848      C1849   1.403       .  A
C1849      C1850   1.401       .  A
C1849      H1853   1.083       .  S
C1850      O1854   1.372       .  S
O1852      H1856   0.992       .  S
O1854      H1855   0.992       .  S
C1857      C1858   1.408       .  A
C1857      C1862   1.412       .  A
C1858      C1859   1.400       .  A
C1858      H1863   1.083       .  S
C1859      C1860   1.402       .  A
C1859      O1864   1.371       .  S
C1860      C1861   1.404       .  A
C1861      C1862   1.404       .  A
C1861      H1865   1.084       .  S
C1862      O1866   1.372       .  S
O1864      H1868   0.992       .  S
O1866      H1867   0.992       .  S
C1869      C1870   1.405       .  A
C1869      C1874   1.410       .  A
C1870      C1871   1.405       .  A
C1870      H1875   1.083       .  S
C1871      C1872   1.413       .  A
C1871      O1876   1.372       .  S
C1872      C1873   1.403       .  A
C1873      C1874   1.399       .  A
C1873      H1877   1.084       .  S
C1874      O1878   1.371       .  S
O1876      H1880   0.992       .  S
O1878      H1879   0.992       .  S
C1881      C1882   1.402       .  A
C1881      C1886   1.407       .  A
C1882      C1883   1.406       .  A
C1882      H1887   1.083       .  S
C1883      C1884   1.413       .  A
C1883      O1888   1.371       .  S
C1884      C1885   1.403       .  A
C1885      C1886   1.396       .  A
C1885      H1889   1.084       .  S
C1886      O1890   1.372       .  S
O1888      H1892   0.992       .  S
O1890      H1891   0.992       .  S
C1893      C1894   1.408       .  A
C1893      C1898   1.411       .  A
C1894      C1895   1.401       .  A
C1894      H1899   1.084       .  S
C1895      C1896   1.408       .  A
C1895      O1900   1.372       .  S
C1896      C1897   1.404       .  A
C1897      C1898   1.402       .  A
C1897      H1901   1.084       .  S
C1898      O1902   1.371       .  S
O1900      H1904   0.992       .  S
O1902      H1903   0.992       .  S
C1905      C1906   1.404       .  A
C1905      C1910   1.415       .  A
C1906      C1907   1.398       .  A
C1906      H1911   1.084       .  S
C1907      C1908   1.409       .  A
C1907      O1912   1.373       .  S
C1908      C1909   1.403       .  A
C1909      C1910   1.406       .  A
C1909      H1913   1.083       .  S
C1910      O1914   1.371       .  S
O1912      H1916   0.992       .  S
O1914      H1915   0.992       .  S
C1917      C1918   1.399       .  A
C1917      C1922   1.408       .  A
C1918      C1919   1.400       .  A
C1918      H1923   1.084       .  S
C1919      C1920   1.414       .  A
C1919      O1924   1.372       .  S
C1920      C1921   1.404       .  A
C1921      C1922   1.401       .  A
C1921      H1925   1.084       .  S
C1922      O1926   1.372       .  S
O1924      H1928   0.992       .  S
O1926      H1927   0.991       .  S
