geometry optimzed in LAMMPS
_audit_creation_date              2020-11-30 
_audit_creation_method            'lammps2cif' 
_symmetry_space_group_name_H-M    'P1' 
_symmetry_Int_Tables_number       1 
_symmetry_cell_setting            triclinic 
loop_ 
_symmetry_equiv_pos_as_xyz 
  x,y,z 
_cell_length_a                    38.84161109 
_cell_length_b                    38.84828221367419 
_cell_length_c                    69.41904599887773 
_cell_angle_alpha                 89.96590540411657 
_cell_angle_beta                  90.01155758920513 
_cell_angle_gamma                 112.53569645508243 
loop_ 
_atom_site_label 
_atom_site_type_symbol 
_atom_site_fract_x 
_atom_site_fract_y 
_atom_site_fract_z 
_atom_site_charge 
C1          C  0.97335536  0.99232514  0.76936109     0.45800
H2          H  0.97582204  0.99267862  0.78529486    -0.03200
C3          C  0.96801366  0.99191672  0.73206785     0.45800
H4          H  0.96584783  0.99162656  0.71610586    -0.03200
C5          C  0.96807235  0.02699665  0.76123696    -0.16900
C6          C  0.00792998  0.99124660  0.75898115    -0.16700
C7          C  0.94049773  0.95830365  0.76160595    -0.17100
C8          C  0.96527162  0.02670341  0.74143396    -0.17000
C9          C  0.00538174  0.99149832  0.73924005    -0.16600
C10         C  0.93816327  0.95773371  0.74175555    -0.16900
O11         O  0.62044872  0.27151889  0.98687518    -0.78200
C12         C  0.70127532  0.27353775  0.03166672     0.82900
O13         O  0.63365592  0.37696977  0.02605106    -0.79300
O14         O  0.76686723  0.39601621  0.02450194    -0.80800
O15         O  0.73922472  0.34332519  0.96015806    -0.80600
O16         O  0.64513173  0.30341382  0.96019963    -0.79200
Zn17       Zn  0.64927780  0.30199909  0.00926187     1.55700
O18         O  0.77182647  0.34392578  0.98665107    -0.80600
Cd19       Cd  0.69072781  0.34799328  0.97071905     1.59700
Cd20       Cd  0.68156886  0.39166017  0.00923363     1.59600
O21         O  0.68872106  0.39779721  0.96032195    -0.80600
O22         O  0.68949900  0.34661213  0.99968559    -1.91100
Cd23       Cd  0.73838273  0.34722843  0.00934635     1.59900
O24         O  0.67895616  0.42564770  0.98661761    -0.80500
O25         O  0.73043471  0.30169549  0.02712859    -0.79200
C26         C  0.60965739  0.34522936  0.03107841     0.83300
C27         C  0.62075645  0.27542088  0.96862425     0.83000
O28         O  0.66912592  0.27018064  0.02559170    -0.78100
C29         C  0.76827323  0.34228054  0.96835860     0.83800
O30         O  0.61256050  0.31507097  0.02566050    -0.78200
C31         C  0.68371181  0.42503499  0.96845061     0.83900
C32         C  0.75823844  0.42322211  0.02966238     0.84300
O33         O  0.72677571  0.42447516  0.02546316    -0.80700
N34         N  0.67827662  0.68597582  0.86267457    -0.03200
C35         C  0.69330145  0.69897971  0.84514020    -0.00600
C36         C  0.66625352  0.70124792  0.83280583    -0.23400
C37         C  0.63355327  0.68954945  0.84296230    -0.23700
C38         C  0.64167878  0.68054264  0.86115657    -0.00700
H39         H  0.67054074  0.71331522  0.81851119     0.13100
H40         H  0.60729219  0.69003652  0.83805401     0.13200
O41         O  0.25274547  0.69684409  0.03171702    -0.78200
C42         C  0.25118051  0.64344584  0.97652201     0.82900
O43         O  0.36672993  0.67714880  0.03053352    -0.79300
O44         O  0.36773599  0.71026737  0.96276655    -0.80800
O45         O  0.31545359  0.79823818  0.98843667    -0.80600
O46         O  0.27743735  0.75890044  0.03066875    -0.79200
Zn47       Zn  0.28476293  0.67855092  0.01519085     1.55700
O48         O  0.31563186  0.76358466  0.96279590    -0.80600
Cd49       Cd  0.32303111  0.76947928  0.01232367     1.59700
Cd50       Cd  0.37359455  0.71997839  0.01160033     1.59600
O51         O  0.37271587  0.80359800  0.02639344    -0.80600
O52         O  0.32480206  0.72081943  0.00349399    -1.91100
Cd53       Cd  0.32109617  0.71659068  0.97461361     1.59900
O54         O  0.40707401  0.76919333  0.02446834    -0.80500
O55         O  0.27532957  0.66929478  0.96670829    -0.79200
C56         C  0.33786154  0.65041132  0.03657893     0.83300
C57         C  0.25245885  0.72837019  0.03659327     0.83000
O58         O  0.25156873  0.64399690  0.99489508    -0.78100
C59         C  0.31353210  0.79280163  0.97023924     0.83800
O60         O  0.30517817  0.64770270  0.03185982    -0.78200
C61         C  0.40313534  0.79897559  0.02955907     0.83900
C62         C  0.39651915  0.70765548  0.97043716     0.84300
O63         O  0.40202588  0.71076510  0.98853926    -0.80700
N64         N  0.35888058  0.36341486  0.14105264    -0.03200
C65         C  0.34719943  0.34743609  0.15853105    -0.00600
C66         C  0.34431459  0.37338538  0.17140439    -0.23400
C67         C  0.35415098  0.40635399  0.16161706    -0.23700
C68         C  0.36272285  0.39948048  0.14309072    -0.00700
H69         H  0.33306273  0.36813261  0.18586374     0.13100
H70         H  0.35276109  0.43189232  0.16705489     0.13200
N71         N  0.30149837  0.06783437  0.87776159    -0.03200
C72         C  0.27354012  0.07428631  0.86865011    -0.00600
C73         C  0.28438211  0.11175586  0.86443275    -0.23400
C74         C  0.32018437  0.12908546  0.87097028    -0.23700
C75         C  0.33000903  0.10173122  0.87913177    -0.00700
H76         H  0.26843164  0.12484566  0.85669846     0.13100
H77         H  0.33721313  0.15854417  0.86997842     0.13200
N78         N  0.97575001  0.72442880  0.13376083    -0.03200
C79         C  0.97291401  0.74445857  0.14928715    -0.00600
C80         C  0.93655215  0.73140956  0.15584859    -0.23400
C81         C  0.91621317  0.70255865  0.14398625    -0.23700
C82         C  0.94082652  0.69865174  0.13062430    -0.00700
H83         H  0.92575508  0.74252606  0.16763848     0.13100
H84         H  0.88665853  0.68599106  0.14507737     0.13200
N85         N  0.04508965  0.32921971  0.87728034    -0.03200
C86         C  0.05077616  0.30942393  0.86229087    -0.00600
C87         C  0.08838035  0.32173942  0.85807317    -0.23400
C88         C  0.10653440  0.34991395  0.87077823    -0.23700
C89         C  0.07947308  0.35422142  0.88228890    -0.00700
H90         H  0.10127399  0.31096822  0.84705871     0.13100
H91         H  0.13622010  0.36618629  0.87125605     0.13200
N92         N  0.70607945  0.00943137  0.13625816    -0.03200
C93         C  0.72460647  0.00559265  0.15228183    -0.00600
C94         C  0.70610486  0.97089897  0.16046131    -0.23400
C95         C  0.67556759  0.95261571  0.14913703    -0.23700
C96         C  0.67596693  0.97672772  0.13443063    -0.00700
H97         H  0.71479089  0.95950349  0.17291953     0.13100
H98         H  0.65529422  0.92458595  0.15132496     0.13200
O99         O  0.67357209  0.27381750  0.47180253    -0.78200
C100        C  0.61851405  0.27689546  0.52735337     0.82900
O101        O  0.63893086  0.38296059  0.47261450    -0.79300
O102        O  0.69178307  0.39704146  0.53910025    -0.80800
O103        O  0.77438596  0.34524587  0.51245874    -0.80600
O104        O  0.73494208  0.30531238  0.47114615    -0.79200
Zn105      Zn  0.65312623  0.30577317  0.48776470     1.55700
O106        O  0.73882306  0.33961262  0.53840200    -0.79000
Cd107      Cd  0.74218598  0.34997987  0.48946510     1.59700
Cd108      Cd  0.68642991  0.39594032  0.49005097     1.59600
O109        O  0.77188466  0.39934881  0.47503824    -0.80600
O110        O  0.69289708  0.34927781  0.49865392    -1.91100
Cd111      Cd  0.69168977  0.34705800  0.52764142     1.59900
O112        O  0.73302384  0.42925789  0.47442279    -0.80500
O113        O  0.64351879  0.30283934  0.53676384    -0.79200
C114        C  0.61644967  0.35173364  0.46595570     0.83300
C115        C  0.70602280  0.27733621  0.46612589     0.83000
O116        O  0.61998555  0.27481133  0.50904425    -0.78100
C117        C  0.76900788  0.34062263  0.53058048     0.83800
O118        O  0.61982803  0.32131233  0.47036168    -0.78200
C119        C  0.76428231  0.42737374  0.47024269     0.83900
C120        C  0.68817056  0.42573391  0.53182143     0.84300
O121        O  0.68399441  0.42843016  0.51368466    -0.80700
N122        N  0.68079619  0.68401094  0.64123697    -0.03200
C123        C  0.70200605  0.70623373  0.65549618    -0.00600
C124        C  0.68126637  0.72129153  0.66621577    -0.23400
C125        C  0.64626501  0.70831375  0.65850103    -0.23700
C126        C  0.64649674  0.68561723  0.64321240    -0.00700
H127        H  0.69119171  0.74114566  0.67788392     0.13100
H128        H  0.62364631  0.71625806  0.66296477     0.13200
O129        O  0.25784292  0.63866124  0.50686983    -0.78200
C130        C  0.25914275  0.72516217  0.46635228     0.82900
O131        O  0.37386595  0.67186524  0.47456426    -0.79300
O132        O  0.37866902  0.79707600  0.47694529    -0.80800
O133        O  0.31800998  0.75883554  0.54039463    -0.80600
O134        O  0.27772358  0.66369387  0.53566520    -0.79200
Zn135      Zn  0.29115018  0.67428224  0.48715993     1.55700
O136        O  0.32278180  0.79456678  0.51453558    -0.80600
Cd137      Cd  0.32411740  0.71138065  0.52895239     1.59700
Cd138      Cd  0.37937874  0.71464469  0.49319072     1.59600
O139        O  0.36948555  0.70366344  0.54186429    -0.80600
O140        O  0.33013010  0.71571481  0.50009385    -1.91100
Cd141      Cd  0.32929195  0.76448677  0.49109811     1.59900
O142        O  0.40641889  0.70602630  0.51694778    -0.80500
O143        O  0.28426754  0.75513335  0.47269088    -0.79200
C144        C  0.34577149  0.64669204  0.46683722     0.83300
C145        C  0.25539962  0.63764009  0.52520057     0.83000
O146        O  0.25898673  0.69321761  0.47077922    -0.78100
C147        C  0.31846441  0.78893987  0.53266235     0.83800
O148        O  0.31270322  0.64461778  0.47012860    -0.78200
C149        C  0.39913337  0.70173707  0.53486858     0.83900
C150        C  0.40908243  0.79235870  0.47418119     0.84300
O151        O  0.41325605  0.76306756  0.47993191    -0.80700
N152        N  0.29583364  0.06545756  0.61849255    -0.03200
C153        C  0.26805857  0.07277067  0.62727399    -0.00600
C154        C  0.27956885  0.11047350  0.63104214    -0.23400
C155        C  0.31549522  0.12697279  0.62448880    -0.23700
C156        C  0.32486069  0.09894491  0.61676538    -0.00700
H157        H  0.26385704  0.12435917  0.63832395     0.13100
H158        H  0.33280157  0.15640389  0.62504762     0.13200
N159        N  0.04157284  0.33073759  0.62686208    -0.03200
C160        C  0.04674563  0.31404462  0.64328999    -0.00600
C161        C  0.08387768  0.32904513  0.64864993    -0.23400
C162        C  0.10227535  0.35552773  0.63520964    -0.23700
C163        C  0.07590129  0.35628776  0.62205130    -0.00700
H164        H  0.09650432  0.32071717  0.66074897     0.13100
H165        H  0.13175451  0.37276286  0.63516318     0.13200
N166        N  0.98834963  0.72426502  0.36496584    -0.03200
C167        C  0.98615652  0.74266158  0.34865160    -0.00600
C168        C  0.95050267  0.72782634  0.34115128    -0.23400
C169        C  0.92988286  0.69947467  0.35322503    -0.23700
C170        C  0.95366419  0.69766709  0.36764369    -0.00700
H171        H  0.94020255  0.73769316  0.32869503     0.13100
H172        H  0.90064638  0.68199531  0.35165932     0.13200
N173        N  0.36477600  0.36913320  0.35559312    -0.03200
C174        C  0.34674237  0.34950115  0.33992857    -0.00600
C175        C  0.33533746  0.37167247  0.32803827    -0.23400
C176        C  0.34660061  0.40605685  0.33654343    -0.23700
C177        C  0.36447164  0.40379716  0.35342718    -0.00700
H178        H  0.31836302  0.36296076  0.31520496     0.13100
H179        H  0.34028120  0.42938135  0.33155732     0.13200
N180        N  0.71882756  0.00157751  0.37493210    -0.03200
C181        C  0.73865831  0.99521761  0.36017595    -0.00600
C182        C  0.72593611  0.95752824  0.35619221    -0.23400
C183        C  0.69737709  0.94002292  0.36878716    -0.23700
C184        C  0.69324580  0.96754332  0.38004286    -0.00700
H185        H  0.73668764  0.94413772  0.34541612     0.13100
H186        H  0.68075734  0.91042134  0.36933337     0.13200
C187        C  0.05870434  0.07122105  0.26976111     0.45800
H188        H  0.05956362  0.07086142  0.28574831    -0.03200
C189        C  0.05636323  0.07162793  0.23235326     0.45800
H190        H  0.05565461  0.07159538  0.21634906    -0.03200
C191        C  0.02376130  0.07613085  0.26165654    -0.16900
C192        C  0.09278056  0.10217365  0.26066137    -0.16700
C193        C  0.05814507  0.03513082  0.26060914    -0.17100
C194        C  0.02258341  0.07633080  0.24177521    -0.17000
C195        C  0.09129174  0.10237224  0.24081256    -0.16600
C196        C  0.05680554  0.03511223  0.24083085    -0.16900
C197        C  0.77129973  0.02252847  0.35010225    -0.03000
C198        C  0.80430443  0.04260871  0.36015674    -0.08800
C199        C  0.83814809  0.05907627  0.35013150    -0.16500
C200        C  0.83911825  0.05583880  0.32999968     0.25700
C201        C  0.80578729  0.03808310  0.31991610    -0.18100
C202        C  0.77219719  0.02149040  0.32988160    -0.07000
C203        C  0.87415821  0.06684243  0.31973270    -0.13500
C204        C  0.90198651  0.07210089  0.31032677    -0.13200
C205        C  0.93380361  0.07481989  0.29862458     0.25600
C206        C  0.94530630  0.10012236  0.28325518    -0.18600
C207        C  0.97498493  0.10124937  0.27140236    -0.07100
C208        C  0.99326547  0.07670696  0.27460835    -0.03200
C209        C  0.98194883  0.05188844  0.29026597    -0.08500
C210        C  0.95244764  0.05090657  0.30213310    -0.16100
H211        H  0.80441650  0.04302659  0.37575701     0.12000
H212        H  0.86374447  0.07254653  0.35814536     0.11300
H213        H  0.80602721  0.03520718  0.30439691     0.11300
H214        H  0.74717249  0.00569609  0.32186649     0.11800
H215        H  0.93114142  0.11876156  0.28032662     0.11800
H216        H  0.98348031  0.12109032  0.25966156     0.11800
H217        H  0.99529128  0.03250729  0.29306385     0.12000
H218        H  0.94380668  0.03105771  0.31388306     0.10800
C219        C  0.33145784  0.30866176  0.33745508    -0.03000
C220        C  0.33785565  0.29401691  0.31993791    -0.08800
C221        C  0.31212113  0.26009399  0.31297880    -0.16500
C222        C  0.27960210  0.24051387  0.32341834     0.25700
C223        C  0.27490584  0.25320260  0.34175350    -0.18100
C224        C  0.30076946  0.28708129  0.34876615    -0.07000
C225        C  0.24875102  0.21152085  0.31404316    -0.13500
C226        C  0.22191163  0.19080331  0.30522882    -0.13200
C227        C  0.18933182  0.16870806  0.29415324     0.25600
C228        C  0.16947789  0.13115319  0.29864437    -0.18600
C229        C  0.13780467  0.10997515  0.28798889    -0.07100
C230        C  0.12559143  0.12581148  0.27249397    -0.03200
C231        C  0.14524906  0.16381080  0.26834388    -0.08500
C232        C  0.17694405  0.18500381  0.27902855    -0.16100
H233        H  0.36073617  0.31063626  0.31074741     0.12000
H234        H  0.31607013  0.25078664  0.29874350     0.11300
H235        H  0.24975453  0.23856023  0.34992748     0.11300
H236        H  0.29444137  0.29839158  0.36193805     0.11800
H237        H  0.17847772  0.11818832  0.31038037     0.11800
H238        H  0.12321542  0.08102158  0.29176446     0.11800
H239        H  0.13609666  0.17715965  0.25685783     0.12000
H240        H  0.19175935  0.21415346  0.27550655     0.10800
C241        C  0.01418320  0.77794904  0.34135028    -0.03000
C242        C  0.02515721  0.81011019  0.35282394    -0.08800
C243        C  0.04101736  0.84542801  0.34429058    -0.16500
C244        C  0.04639207  0.84873330  0.32429435     0.25700
C245        C  0.03841516  0.81665701  0.31308752    -0.18100
C246        C  0.02223364  0.78144773  0.32155666    -0.07000
C247        C  0.05481869  0.88415988  0.31491524    -0.13500
C248        C  0.05757228  0.91210375  0.30629778    -0.13200
C249        C  0.05774188  0.94368008  0.29530319     0.25600
C250        C  0.09140010  0.97319062  0.29108241    -0.18600
C251        C  0.09148166  0.00311094  0.27983666    -0.07100
C252        C  0.05796596  0.00356992  0.27254332    -0.03200
C253        C  0.02424759  0.97426522  0.27698259    -0.08500
C254        C  0.02413189  0.94444046  0.28834108    -0.16100
H255        H  0.01839621  0.80799898  0.36802944     0.12000
H256        H  0.04679868  0.87003553  0.35308939     0.11300
H257        H  0.04228806  0.81880206  0.29761038     0.11300
H258        H  0.01347718  0.75695318  0.31244815     0.11800
H259        H  0.11756565  0.97289211  0.29631107     0.11800
H260        H  0.11775770  0.02539614  0.27637870     0.11800
H261        H  0.99814545  0.97449534  0.27161573     0.12000
H262        H  0.99789316  0.92182223  0.29154946     0.10800
C263        C  0.22654500  0.60481780  0.53453180    -0.03000
C264        C  0.19755634  0.57898280  0.52360109    -0.08800
C265        C  0.17166573  0.54687338  0.53222018    -0.16500
C266        C  0.17444354  0.54003699  0.55185083     0.25700
C267        C  0.20293311  0.56578997  0.56286326    -0.18100
C268        C  0.22869799  0.59799091  0.55431371    -0.07000
C269        C  0.14926831  0.50598498  0.56064445    -0.13500
C270        C  0.13090444  0.47747780  0.56894646    -0.13200
C271        C  0.11335371  0.44393547  0.58015259     0.25600
C272        C  0.08023480  0.43746482  0.59033140    -0.18600
C273        C  0.06630012  0.40734178  0.60318123    -0.07100
C274        C  0.08544396  0.38349689  0.60595074    -0.03200
C275        C  0.11774326  0.38935922  0.59508246    -0.08500
C276        C  0.13152026  0.41926192  0.58226588    -0.16100
H277        H  0.19508186  0.58340109  0.50834443     0.12000
H278        H  0.14984389  0.52713932  0.52351437     0.11300
H279        H  0.20556606  0.56071535  0.57803762     0.11300
H280        H  0.25081442  0.61708784  0.56310585     0.11800
H281        H  0.06605637  0.45651864  0.58893688     0.11800
H282        H  0.04183305  0.40391011  0.61168404     0.11800
H283        H  0.13312669  0.37152340  0.59706748     0.12000
H284        H  0.15721649  0.42399138  0.57457711     0.10800
C285        C  0.37506637  0.43326923  0.36836081    -0.03000
C286        C  0.36672883  0.42385592  0.38783703    -0.08800
C287        C  0.36904828  0.45140371  0.40133243    -0.16500
C288        C  0.37984734  0.48859299  0.39550740     0.25700
C289        C  0.39031391  0.49843553  0.37636664    -0.18100
C290        C  0.38792014  0.47095144  0.36286612    -0.07000
C291        C  0.37674502  0.51599382  0.40860146    -0.13500
C292        C  0.37188482  0.53877216  0.41886490    -0.13200
C293        C  0.36514987  0.56599314  0.43069936     0.25600
C294        C  0.39496875  0.59402162  0.43971364    -0.18600
C295        C  0.38859169  0.62040458  0.45127084    -0.07100
C296        C  0.35217947  0.61915244  0.45402950    -0.03200
C297        C  0.32234843  0.59101093  0.44478073    -0.08500
C298        C  0.32883829  0.56462475  0.43317575    -0.16100
H299        H  0.35598614  0.39501489  0.39240367     0.12000
H300        H  0.36070347  0.44344351  0.41609484     0.11300
H301        H  0.39871568  0.52711389  0.37168929     0.11300
H302        H  0.39453082  0.47892918  0.34794950     0.11800
H303        H  0.42318421  0.59542931  0.43786543     0.11800
H304        H  0.41223525  0.64163264  0.45816248     0.11800
H305        H  0.29403121  0.58926896  0.44657860     0.12000
H306        H  0.30553946  0.54309102  0.42619734     0.10800
C307        C  0.31383132  0.81847353  0.54485552    -0.03000
C308        C  0.30516739  0.81270992  0.56460689    -0.08800
C309        C  0.30054966  0.84075497  0.57580056    -0.16500
C310        C  0.30461435  0.87498099  0.56744571     0.25700
C311        C  0.31332788  0.88092830  0.54785293    -0.18100
C312        C  0.31784620  0.85301177  0.53666033    -0.07000
C313        C  0.30017586  0.90428219  0.57878881    -0.13500
C314        C  0.29739206  0.93031152  0.58728189    -0.13200
C315        C  0.29546076  0.96302799  0.59640063     0.25600
C316        C  0.26564567  0.97388572  0.59248155    -0.18600
C317        C  0.26516955  0.00701050  0.60023695    -0.07100
C318        C  0.29467021  0.02983746  0.61187644    -0.03200
C319        C  0.32401052  0.01836948  0.61613641    -0.08500
C320        C  0.32440153  0.98519574  0.60845843    -0.16100
H321        H  0.30179028  0.78650012  0.57138964     0.12000
H322        H  0.29382868  0.83573792  0.59094998     0.11300
H323        H  0.31665109  0.90724677  0.54118399     0.11300
H324        H  0.32458328  0.85859003  0.52155087     0.11800
H325        H  0.24315069  0.95714806  0.58311425     0.11800
H326        H  0.24244911  0.01549506  0.59666689     0.11800
H327        H  0.34684998  0.03542914  0.62520962     0.12000
H328        H  0.34763017  0.97721249  0.61162687     0.10800
C329        C  0.66250537  0.95952828  0.39419918    -0.03000
C330        C  0.65273442  0.92740341  0.40569947    -0.08800
C331        C  0.62022722  0.91540527  0.41672804    -0.16500
C332        C  0.59681496  0.93521635  0.41644188     0.25700
C333        C  0.60687156  0.96802497  0.40553898    -0.18100
C334        C  0.63961401  0.98016092  0.39445478    -0.07000
C335        C  0.56161636  0.91992995  0.42645565    -0.13500
C336        C  0.53309584  0.90189218  0.43481225    -0.13200
C337        C  0.50155101  0.87512772  0.44476216     0.25600
C338        C  0.46922811  0.88195115  0.44840223    -0.18600
C339        C  0.43892068  0.85513011  0.45797065    -0.07100
C340        C  0.44068237  0.82121477  0.46400226    -0.03200
C341        C  0.47332570  0.81477843  0.46019279    -0.08500
C342        C  0.50337480  0.84145891  0.45066792    -0.16100
H343        H  0.66973660  0.91087985  0.40567903     0.12000
H344        H  0.61274809  0.88994189  0.42503655     0.11300
H345        H  0.58885749  0.98347725  0.40509515     0.11300
H346        H  0.64593674  0.00445704  0.38535898     0.11800
H347        H  0.46743239  0.90787599  0.44384701     0.11800
H348        H  0.41421632  0.86094107  0.46065944     0.11800
H349        H  0.47573013  0.78902160  0.46453612     0.12000
H350        H  0.52813962  0.83575999  0.44787849     0.10800
C351        C  0.22904566  0.72736056  0.45378044    -0.03000
C352        C  0.22803055  0.76207062  0.44871803    -0.08800
C353        C  0.19894374  0.76396462  0.43740061    -0.16500
C354        C  0.17044256  0.73127698  0.43095879     0.25700
C355        C  0.17138169  0.69663479  0.43576538    -0.18100
C356        C  0.20042711  0.69465793  0.44706800    -0.07000
C357        C  0.14009122  0.73322411  0.41957590    -0.13500
C358        C  0.11440942  0.73433481  0.41010380    -0.13200
C359        C  0.08332591  0.73453069  0.39873085     0.25600
C360        C  0.05021791  0.73219547  0.40773232    -0.18600
C361        C  0.01938138  0.73023186  0.39666223    -0.07100
C362        C  0.02115059  0.73024539  0.37643286    -0.03200
C363        C  0.05481598  0.73378964  0.36750868    -0.08500
C364        C  0.08567755  0.73585744  0.37858566    -0.16100
H365        H  0.24954386  0.78777948  0.45361545     0.12000
H366        H  0.19858065  0.79095533  0.43377095     0.11300
H367        H  0.14953960  0.67111916  0.43087171     0.11300
H368        H  0.20026593  0.66746846  0.45067568     0.11800
H369        H  0.04803871  0.73130214  0.42329983     0.11800
H370        H  0.99391778  0.72806223  0.40385758     0.11800
H371        H  0.05675706  0.73361906  0.35195406     0.12000
H372        H  0.11110295  0.73768890  0.37143044     0.10800
C373        C  0.61462381  0.67071226  0.62963958    -0.03000
C374        C  0.57814085  0.66111521  0.63668525    -0.08800
C375        C  0.54852028  0.65577405  0.62409148    -0.16500
C376        C  0.55478352  0.65959015  0.60424010     0.25700
C377        C  0.59055838  0.66671577  0.59697368    -0.18100
C378        C  0.62038436  0.67226437  0.60960999    -0.07000
C379        C  0.52549498  0.66042637  0.59172160    -0.13500
C380        C  0.50182352  0.66481927  0.58191719    -0.13200
C381        C  0.47552565  0.67353906  0.57024293     0.25600
C382        C  0.48534309  0.68682182  0.55150360    -0.18600
C383        C  0.46070392  0.69655796  0.54021974    -0.07100
C384        C  0.42573906  0.69331023  0.54751172    -0.03200
C385        C  0.41612623  0.68018358  0.56644623    -0.08500
C386        C  0.44089209  0.67031811  0.57773043    -0.16100
H387        H  0.57282447  0.65963325  0.65203820     0.12000
H388        H  0.52105410  0.65041710  0.62990897     0.11300
H389        H  0.59578694  0.66995779  0.58161920     0.11300
H390        H  0.64819268  0.68034524  0.60374447     0.11800
H391        H  0.51215461  0.68974872  0.54559943     0.11800
H392        H  0.46907548  0.70657063  0.52572472     0.11800
H393        H  0.38934481  0.67707369  0.57242888     0.12000
H394        H  0.43306975  0.66025669  0.59227570     0.10800
C395        C  0.00695802  0.32433636  0.61691825    -0.03000
C396        C  0.00518781  0.32182267  0.59670932    -0.08800
C397        C  0.97315366  0.32020696  0.58684137    -0.16500
C398        C  0.94222356  0.32080010  0.59700755     0.25700
C399        C  0.94326385  0.32189287  0.61721066    -0.18100
C400        C  0.97539498  0.32357556  0.62710538    -0.07000
C401        C  0.91028470  0.32192732  0.58661341    -0.13500
C402        C  0.88479980  0.32424827  0.57734805    -0.13200
C403        C  0.85551849  0.32813335  0.56567847     0.25600
C404        C  0.82079386  0.32290633  0.57376501    -0.18600
C405        C  0.79268017  0.32703485  0.56243130    -0.07100
C406        C  0.79877907  0.33635757  0.54276550    -0.03200
C407        C  0.83379748  0.34154710  0.53478774    -0.08500
C408        C  0.86186043  0.33753176  0.54615038    -0.16100
H409        H  0.02899647  0.32197633  0.58855531     0.12000
H410        H  0.97281046  0.31926404  0.57124300     0.11300
H411        H  0.91960416  0.32237153  0.62529482     0.11300
H412        H  0.97618461  0.32576565  0.64265806     0.11800
H413        H  0.81543781  0.31567704  0.58884516     0.11800
H414        H  0.76611907  0.32277555  0.56906098     0.11800
H415        H  0.83962484  0.34886701  0.51975111     0.12000
H416        H  0.88857601  0.34179982  0.53967747     0.10800
C417        C  0.72381984  0.03679653  0.38369941    -0.03000
C418        C  0.72222744  0.06632221  0.37254354    -0.08800
C419        C  0.72325762  0.09914780  0.38142333    -0.16500
C420        C  0.72628616  0.10291198  0.40152665     0.25700
C421        C  0.72899748  0.07390178  0.41261153    -0.18100
C422        C  0.72766518  0.04105178  0.40376953    -0.07000
C423        C  0.72501583  0.13564365  0.41095446    -0.13500
C424        C  0.72262817  0.16171621  0.41959176    -0.13200
C425        C  0.71857441  0.19155601  0.43063975     0.25600
C426        C  0.68300502  0.19073788  0.43489958    -0.18600
C427        C  0.67887855  0.21873818  0.44626054    -0.07100
C428        C  0.71032498  0.24814380  0.45355513    -0.03200
C429        C  0.74599034  0.24900475  0.44896073    -0.08500
C430        C  0.75003603  0.22089974  0.43764953    -0.16100
H431        H  0.71886709  0.06336596  0.35707316     0.12000
H432        H  0.72097732  0.12125559  0.37266027     0.11300
H433        H  0.73137107  0.07636196  0.42814472     0.11300
H434        H  0.72898663  0.01858635  0.41258171     0.11800
H435        H  0.65839911  0.16822726  0.42959571     0.11800
H436        H  0.65102728  0.21721871  0.44941799     0.11800
H437        H  0.77081182  0.27114208  0.45431497     0.12000
H438        H  0.77773482  0.22189448  0.43452722     0.10800
C439        C  0.58636560  0.24889086  0.53773577    -0.03000
C440        C  0.58390661  0.24913986  0.55797154    -0.08800
C441        C  0.55265061  0.22373548  0.56751525    -0.16500
C442        C  0.52337158  0.19769920  0.55701977     0.25700
C443        C  0.52575616  0.19700662  0.53692061    -0.18100
C444        C  0.55695980  0.22227841  0.52735909    -0.07000
C445        C  0.49028279  0.17279156  0.56678605    -0.13500
C446        C  0.46215780  0.15387995  0.57527209    -0.13200
C447        C  0.42857497  0.13508656  0.58631472     0.25600
C448        C  0.39627145  0.10947047  0.57761894    -0.18600
C449        C  0.36261383  0.09524241  0.58793772    -0.07100
C450        C  0.36101940  0.10672153  0.60699890    -0.03200
C451        C  0.39388046  0.13107005  0.61582363    -0.08500
C452        C  0.42737677  0.14502218  0.60559307    -0.16100
H453        H  0.60592081  0.26920701  0.56642096     0.12000
H454        H  0.55112074  0.22471970  0.58307779     0.11300
H455        H  0.50326734  0.17720695  0.52859619     0.11300
H456        H  0.55774175  0.22130486  0.51178265     0.11800
H457        H  0.39673208  0.10169194  0.56266770     0.11800
H458        H  0.33751664  0.07710956  0.58070512     0.11800
H459        H  0.39326254  0.14048938  0.63045797     0.12000
H460        H  0.45202990  0.16481940  0.61249965     0.10800
C461        C  0.58542599  0.35032697  0.45290259    -0.03000
C462        C  0.57780370  0.38236384  0.44928353    -0.08800
C463        C  0.54804507  0.38055365  0.43731804    -0.16500
C464        C  0.52543718  0.34678654  0.42871848     0.25700
C465        C  0.53302592  0.31484605  0.43207451    -0.18100
C466        C  0.56267783  0.31655385  0.44407081    -0.07000
C467        C  0.49473391  0.34513434  0.41638347    -0.13500
C468        C  0.47005605  0.34560427  0.40583850    -0.13200
C469        C  0.44289609  0.34963942  0.39267319     0.25600
C470        C  0.40479407  0.32700696  0.39413424    -0.18600
C471        C  0.37883990  0.33245479  0.38161519    -0.07100
C472        C  0.39081298  0.36073430  0.36763671    -0.03200
C473        C  0.42901646  0.38290491  0.36615626    -0.08500
C474        C  0.45480298  0.37737328  0.37852010    -0.16100
H475        H  0.59463954  0.40877500  0.45581184     0.12000
H476        H  0.54261838  0.40554511  0.43480824     0.11300
H477        H  0.51597066  0.28857131  0.42546362     0.11300
H478        H  0.56774847  0.29133903  0.44643258     0.11800
H479        H  0.39511957  0.30555385  0.40508499     0.11800
H480        H  0.34950818  0.31546200  0.38320240     0.11800
H481        H  0.43874216  0.40489719  0.35549290     0.12000
H482        H  0.48405453  0.39512313  0.37719845     0.10800
C483        C  0.79269733  0.45889927  0.45976399    -0.03000
C484        C  0.82736118  0.45777187  0.45463151    -0.08800
C485        C  0.85418191  0.48780517  0.44496132    -0.16500
C486        C  0.84678229  0.51938446  0.44033741     0.25700
C487        C  0.81248886  0.52079131  0.44544640    -0.18100
C488        C  0.78566598  0.49085769  0.45507094    -0.07000
C489        C  0.87363898  0.55014447  0.42993195    -0.13500
C490        C  0.89296567  0.57688092  0.42065876    -0.13200
C491        C  0.91109976  0.60941093  0.40886917     0.25600
C492        C  0.89325801  0.63412942  0.40583543    -0.18600
C493        C  0.90827573  0.66383874  0.39302957    -0.07100
C494        C  0.94155434  0.66948006  0.38317017    -0.03200
C495        C  0.96013782  0.64538501  0.38668147    -0.08500
C496        C  0.94489624  0.61537215  0.39947991    -0.16100
H497        H  0.83376806  0.43368362  0.45806177     0.12000
H498        H  0.88057026  0.48632592  0.44104086     0.11300
H499        H  0.80638913  0.54503776  0.44191014     0.11300
H500        H  0.75943263  0.49280957  0.45884803     0.11800
H501        H  0.86708039  0.62978174  0.41294514     0.11800
H502        H  0.89340724  0.68196661  0.39043216     0.11800
H503        H  0.98545699  0.64884156  0.37894137     0.12000
H504        H  0.95883712  0.59627912  0.40161099     0.10800
C505        C  0.68872517  0.65669922  0.62987001    -0.03000
C506        C  0.66462437  0.61898044  0.63101568    -0.08800
C507        C  0.66922825  0.59231366  0.61888911    -0.16500
C508        C  0.69799442  0.60270992  0.60527132     0.25700
C509        C  0.72285257  0.64020792  0.60432213    -0.18100
C510        C  0.71833160  0.66705568  0.61661082    -0.07000
C511        C  0.70061830  0.57478134  0.59203060    -0.13500
C512        C  0.69979026  0.54968630  0.58135200    -0.13200
C513        C  0.69674538  0.51851450  0.56889533     0.25600
C514        C  0.68807983  0.51899501  0.54930746    -0.18600
C515        C  0.68475397  0.48873670  0.53732985    -0.07100
C516        C  0.68992059  0.45723130  0.54471974    -0.03200
C517        C  0.69827746  0.45686730  0.56446520    -0.08500
C518        C  0.70167121  0.48718558  0.57639833    -0.16100
H519        H  0.64168795  0.61032754  0.64115302     0.12000
H520        H  0.64981185  0.56358478  0.61990115     0.11300
H521        H  0.74524901  0.64881037  0.59386106     0.11300
H522        H  0.73700965  0.69594839  0.61529761     0.11800
H523        H  0.68395016  0.54283765  0.54325107     0.11800
H524        H  0.67832902  0.49013734  0.52224500     0.11800
H525        H  0.70259611  0.43327387  0.57069546     0.12000
H526        H  0.70821183  0.48618081  0.59150488     0.10800
C527        C  0.99014635  0.07533503  0.22983915    -0.03000
C528        C  0.99571528  0.09889667  0.21374829    -0.08800
C529        C  0.96563485  0.09700558  0.20196396    -0.16500
C530        C  0.92954551  0.07126565  0.20594905     0.25700
C531        C  0.92394801  0.04736642  0.22183241    -0.18100
C532        C  0.95397597  0.04923322  0.23360358    -0.07000
C533        C  0.89816146  0.06902133  0.19386335    -0.13500
C534        C  0.87024077  0.06518991  0.18473299    -0.13200
C535        C  0.83436624  0.05730896  0.17554105     0.25600
C536        C  0.80310727  0.05211169  0.18701007    -0.18600
C537        C  0.76736515  0.03874783  0.17891307    -0.07100
C538        C  0.76213299  0.03065308  0.15913272    -0.03200
C539        C  0.79370498  0.03825829  0.14739256    -0.08500
C540        C  0.82962994  0.05135772  0.15557159    -0.16100
H541        H  0.02326266  0.11884195  0.21035176     0.12000
H542        H  0.97058732  0.11559547  0.18970468     0.11300
H543        H  0.89636037  0.02708281  0.22505844     0.11300
H544        H  0.94900681  0.02990146  0.24552033     0.11800
H545        H  0.80613220  0.05645200  0.20243634     0.11800
H546        H  0.74348206  0.03247547  0.18832369     0.11800
H547        H  0.79039046  0.03131240  0.13221609     0.12000
H548        H  0.85343815  0.05502632  0.14647694     0.10800
C549        C  0.00180787  0.77878332  0.15708771    -0.03000
C550        C  0.00655377  0.78228591  0.17713839    -0.08800
C551        C  0.02404454  0.81730674  0.18558205    -0.16500
C552        C  0.03680684  0.84937135  0.17411581     0.25700
C553        C  0.03470891  0.84590306  0.15397683    -0.18100
C554        C  0.01742534  0.81063703  0.14546580    -0.07000
C555        C  0.04724549  0.88531038  0.18328452    -0.13500
C556        C  0.05167189  0.91326641  0.19233800    -0.13200
C557        C  0.05377906  0.94457811  0.20418470     0.25600
C558        C  0.02858411  0.96204049  0.20136302    -0.18600
C559        C  0.02962889  0.99142212  0.21334246    -0.07100
C560        C  0.05571594  0.00356013  0.22837986    -0.03200
C561        C  0.08127796  0.98629399  0.23093901    -0.08500
C562        C  0.08009907  0.95680857  0.21902672    -0.16100
H563        H  0.99431715  0.75812265  0.18635202     0.12000
H564        H  0.02537973  0.81954407  0.20114716     0.11300
H565        H  0.04431107  0.87051346  0.14493412     0.11300
H566        H  0.01340498  0.80862913  0.13000390     0.11800
H567        H  0.00795863  0.95277327  0.18999305     0.11800
H568        H  0.00976734  0.00440849  0.21101543     0.11800
H569        H  0.10263860  0.99600594  0.24187060     0.12000
H570        H  0.09978986  0.94361866  0.22136644     0.10800
C571        C  0.32753666  0.30704827  0.16213349    -0.03000
C572        C  0.29943522  0.28547386  0.14938437    -0.08800
C573        C  0.27115567  0.25244966  0.15578573    -0.16500
C574        C  0.27113596  0.24053343  0.17486601     0.25700
C575        C  0.30112189  0.26002482  0.18695315    -0.18100
C576        C  0.32915522  0.29303335  0.18063368    -0.07000
C577        C  0.23863259  0.21156385  0.18296566    -0.13500
C578        C  0.21185426  0.19031766  0.19157902    -0.13200
C579        C  0.18109782  0.16723202  0.20344730     0.25600
C580        C  0.18683211  0.14409838  0.21751419    -0.18600
C581        C  0.15764781  0.12301443  0.22969455    -0.07100
C582        C  0.12243654  0.12507535  0.22807601    -0.03200
C583        C  0.11661158  0.14784213  0.21377712    -0.08500
C584        C  0.14586512  0.16899512  0.20160627    -0.16100
H585        H  0.29718532  0.29599445  0.13518762     0.12000
H586        H  0.24808931  0.23766399  0.14628271     0.11300
H587        H  0.30150201  0.25114632  0.20172467     0.11300
H588        H  0.35035935  0.30932099  0.19075982     0.11800
H589        H  0.21391531  0.14252948  0.21914115     0.11800
H590        H  0.16251092  0.10506280  0.24039628     0.11800
H591        H  0.08970768  0.14969811  0.21225841     0.12000
H592        H  0.14107272  0.18695180  0.19086902     0.10800
C593        C  0.08814404  0.38477966  0.89653485    -0.03000
C594        C  0.07233259  0.41168392  0.89492167    -0.08800
C595        C  0.08585147  0.44413000  0.90620468    -0.16500
C596        C  0.11502148  0.44975242  0.91931777     0.25700
C597        C  0.12984068  0.42229807  0.92142262    -0.18100
C598        C  0.11667805  0.39018396  0.91003582    -0.07000
C599        C  0.13169253  0.48448405  0.92972348    -0.13500
C600        C  0.14879567  0.51338232  0.93804971    -0.13200
C601        C  0.17250203  0.54747116  0.94744628     0.25600
C602        C  0.16714412  0.55389428  0.96687118    -0.18600
C603        C  0.19214164  0.58558237  0.97626678    -0.07100
C604        C  0.22282288  0.61140601  0.96632657    -0.03200
C605        C  0.22730982  0.60519544  0.94668088    -0.08500
C606        C  0.20246314  0.57343872  0.93737113    -0.16100
H607        H  0.05092091  0.40847801  0.88428333     0.12000
H608        H  0.07435686  0.46527768  0.90428526     0.11300
H609        H  0.15247416  0.42628662  0.93142030     0.11300
H610        H  0.12953928  0.36999189  0.91133977     0.11800
H611        H  0.14412204  0.53403498  0.97486506     0.11800
H612        H  0.18777536  0.58956908  0.99137243     0.11800
H613        H  0.25067920  0.62432882  0.93861390     0.12000
H614        H  0.20709305  0.56875961  0.92237789     0.10800
C615        C  0.36837872  0.42654843  0.12725455    -0.03000
C616        C  0.38961225  0.46449787  0.13050322    -0.08800
C617        C  0.38870082  0.49138115  0.11736468    -0.16500
C618        C  0.36640361  0.48068270  0.10087345     0.25700
C619        C  0.34628875  0.44280212  0.09713670    -0.18100
C620        C  0.34726067  0.41583477  0.11027530    -0.07000
C621        C  0.36199228  0.50878403  0.08873916    -0.13500
C622        C  0.35767138  0.53327997  0.07963710    -0.13200
C623        C  0.35256480  0.56322661  0.06940222     0.25600
C624        C  0.31665626  0.56229350  0.06606275    -0.18600
C625        C  0.31174730  0.59110903  0.05580277    -0.07100
C626        C  0.34276379  0.62126901  0.04877148    -0.03200
C627        C  0.37876894  0.62231035  0.05260839    -0.08500
C628        C  0.38357755  0.59346941  0.06282042    -0.16100
H629        H  0.40566164  0.47342166  0.14362769     0.12000
H630        H  0.40422631  0.52060211  0.12045775     0.11300
H631        H  0.32861183  0.43422142  0.08452238     0.11300
H632        H  0.32949875  0.38697591  0.10782125     0.11800
H633        H  0.29245229  0.53912259  0.07121729     0.11800
H634        H  0.28368857  0.58947926  0.05313400     0.11800
H635        H  0.40327132  0.64506723  0.04741684     0.12000
H636        H  0.41150592  0.59459838  0.06542027     0.10800
C637        C  0.30054060  0.03285252  0.88542133    -0.03000
C638        C  0.26933238  0.00927821  0.89580688    -0.08800
C639        C  0.26949471  0.97685609  0.90458434    -0.16500
C640        C  0.30084311  0.96750882  0.90311617     0.25700
C641        C  0.33179843  0.99051010  0.89250431    -0.18100
C642        C  0.33155471  0.02279643  0.88361595    -0.07000
C643        C  0.30163129  0.93500571  0.91297320    -0.13500
C644        C  0.30244956  0.90862184  0.92194931    -0.13200
C645        C  0.30376501  0.87846751  0.93375780     0.25600
C646        C  0.31257315  0.84976844  0.92570798    -0.18600
C647        C  0.31508385  0.82142619  0.93746166    -0.07100
C648        C  0.30910459  0.82158574  0.95747348    -0.03200
C649        C  0.29970324  0.85023394  0.96533031    -0.08500
C650        C  0.29700317  0.87833580  0.95356441    -0.16100
H651        H  0.24528266  0.01656596  0.89760144     0.12000
H652        H  0.24539969  0.95941512  0.91279913     0.11300
H653        H  0.35624786  0.98368137  0.89124131     0.11300
H654        H  0.35576262  0.04016387  0.87548368     0.11800
H655        H  0.31787884  0.84950226  0.91040397     0.11800
H656        H  0.32239821  0.79982141  0.93094282     0.11800
H657        H  0.29462092  0.85108578  0.98062181     0.12000
H658        H  0.29004041  0.90026401  0.95998319     0.10800
C659        C  0.22186841  0.72912679  0.04920940    -0.03000
C660        C  0.21822261  0.76290855  0.05366642    -0.08800
C661        C  0.18839922  0.76309977  0.06494924    -0.16500
C662        C  0.16189403  0.72962382  0.07197212     0.25700
C663        C  0.16551001  0.69594286  0.06779253    -0.18100
C664        C  0.19522478  0.69566179  0.05651048    -0.07000
C665        C  0.13065961  0.72973047  0.08317703    -0.13500
C666        C  0.10416071  0.72973438  0.09227450    -0.13200
C667        C  0.07214996  0.72972904  0.10281138     0.25600
C668        C  0.07242150  0.73019702  0.12299454    -0.18600
C669        C  0.04108566  0.72960056  0.13317624    -0.07100
C670        C  0.00907740  0.72834391  0.12328505    -0.03200
C671        C  0.00922482  0.72852296  0.10304293    -0.08500
C672        C  0.04053382  0.72911084  0.09287382    -0.16100
H673        H  0.23812608  0.78912205  0.04825902     0.12000
H674        H  0.18586051  0.78935149  0.06807185     0.11300
H675        H  0.14520479  0.66985241  0.07312830     0.11300
H676        H  0.19713402  0.66913392  0.05339503     0.11800
H677        H  0.09667898  0.73062584  0.13085207     0.11800
H678        H  0.04136209  0.72906149  0.14876802     0.11800
H679        H  0.98490888  0.72777796  0.09515491     0.12000
H680        H  0.03998534  0.72882241  0.07726823     0.10800
C681        C  0.43505437  0.82820205  0.03957264    -0.03000
C682        C  0.43231571  0.86056483  0.04734275    -0.08800
C683        C  0.46233509  0.88653340  0.05760446    -0.16500
C684        C  0.49551885  0.88059933  0.06015701     0.25700
C685        C  0.49861130  0.84892956  0.05208943    -0.18100
C686        C  0.46884322  0.82308598  0.04192052    -0.07000
C687        C  0.52615660  0.90570239  0.07158837    -0.13500
C688        C  0.55305128  0.92307872  0.08141876    -0.13200
C689        C  0.58587718  0.93911808  0.09349515     0.25600
C690        C  0.60876299  0.91917136  0.09645936    -0.18600
C691        C  0.63892764  0.93250758  0.10917601    -0.07100
C692        C  0.64711441  0.96628643  0.11904789    -0.03200
C693        C  0.62483950  0.98692628  0.11566282    -0.08500
C694        C  0.59429820  0.97334354  0.10297290    -0.16100
H695        H  0.40683361  0.86548146  0.04578603     0.12000
H696        H  0.45946095  0.91089914  0.06375948     0.11300
H697        H  0.52398668  0.84385930  0.05390204     0.11300
H698        H  0.47224840  0.79873741  0.03609871     0.11800
H699        H  0.60271459  0.89271655  0.08929556     0.11800
H700        H  0.65551957  0.91599134  0.11164913     0.11800
H701        H  0.63018929  0.01270132  0.12336512     0.12000
H702        H  0.57679661  0.98904968  0.10091814     0.10800
C703        C  0.61513341  0.67357060  0.87728954    -0.03000
C704        C  0.57882230  0.64658148  0.87542002    -0.08800
C705        C  0.55091523  0.64573382  0.88837574    -0.16500
C706        C  0.55900353  0.67208261  0.90320876     0.25700
C707        C  0.59550471  0.69811670  0.90558139    -0.18100
C708        C  0.62339678  0.69896617  0.89263835    -0.07000
C709        C  0.52942362  0.67464582  0.91488909    -0.13500
C710        C  0.50517716  0.67888982  0.92425257    -0.13200
C711        C  0.47735245  0.68553873  0.93565568     0.25600
C712        C  0.47896970  0.68421321  0.95573846    -0.18600
C713        C  0.45273449  0.69153772  0.96696293    -0.07100
C714        C  0.42430533  0.70026129  0.95826492    -0.03200
C715        C  0.42271669  0.70133734  0.93803483    -0.08500
C716        C  0.44918533  0.69413040  0.92680682    -0.16100
H717        H  0.57171708  0.62736196  0.86339272     0.12000
H718        H  0.52273232  0.62563247  0.88631056     0.11300
H719        H  0.60199561  0.71894240  0.91684874     0.11300
H720        H  0.65065296  0.72116714  0.89378305     0.11800
H721        H  0.50064250  0.67764926  0.96274990     0.11800
H722        H  0.45467950  0.69020477  0.98248361     0.11800
H723        H  0.40121051  0.70795176  0.93090361     0.12000
H724        H  0.44775723  0.69537502  0.91125314     0.10800
C725        C  0.59129635  0.24715753  0.95708283    -0.03000
C726        C  0.56705378  0.21387997  0.96571462    -0.08800
C727        C  0.53723724  0.18860871  0.95533795    -0.16500
C728        C  0.53123094  0.19621484  0.93622148     0.25700
C729        C  0.55579019  0.22869421  0.92732312    -0.18100
C730        C  0.58574247  0.25396391  0.93764912    -0.07000
C731        C  0.49844666  0.17214816  0.92618644    -0.13500
C732        C  0.46990376  0.15438021  0.91787272    -0.13200
C733        C  0.43530282  0.13691343  0.90768422     0.25600
C734        C  0.43334052  0.14521998  0.88821207    -0.18600
C735        C  0.39905924  0.13209955  0.87872858    -0.07100
C736        C  0.36638351  0.11026704  0.88856797    -0.03200
C737        C  0.36856335  0.10094522  0.90793970    -0.08500
C738        C  0.40295490  0.11431583  0.91748154    -0.16100
H739        H  0.57065656  0.20769670  0.98061584     0.12000
H740        H  0.51833797  0.16360710  0.96237612     0.11300
H741        H  0.55125475  0.23494204  0.91254905     0.11300
H742        H  0.60381962  0.27932661  0.93059931     0.11800
H743        H  0.45810487  0.16290405  0.88053745     0.11800
H744        H  0.39782357  0.13984115  0.86382560     0.11800
H745        H  0.34354252  0.08480923  0.91586325     0.12000
H746        H  0.40412499  0.10809699  0.93262491     0.10800
C747        C  0.57769326  0.34334982  0.04348471    -0.03000
C748        C  0.54759244  0.30922534  0.04670700    -0.08800
C749        C  0.51738737  0.30762151  0.05825748    -0.16500
C750        C  0.51680874  0.34001982  0.06685198     0.25700
C751        C  0.54676695  0.37401618  0.06385165    -0.18100
C752        C  0.57688966  0.37572445  0.05224016    -0.07000
C753        C  0.48575203  0.33853211  0.07884377    -0.13500
C754        C  0.46092275  0.33882821  0.08931290    -0.13200
C755        C  0.43360991  0.34176378  0.10271709     0.25600
C756        C  0.39640738  0.33291312  0.09714546    -0.18600
C757        C  0.37096479  0.33835475  0.10999360    -0.07100
C758        C  0.38262921  0.35282791  0.12846523    -0.03200
C759        C  0.41959462  0.36060611  0.13408930    -0.08500
C760        C  0.44485891  0.35512330  0.12134142    -0.16100
H761        H  0.54723402  0.28376704  0.04019080     0.12000
H762        H  0.49448886  0.28111031  0.06046961     0.11300
H763        H  0.54684025  0.39929176  0.07047910     0.11300
H764        H  0.59962240  0.40239365  0.05018895     0.11800
H765        H  0.38727615  0.32251540  0.08278486     0.11800
H766        H  0.34257143  0.33204313  0.10542001     0.11800
H767        H  0.42908353  0.37210125  0.14822721     0.12000
H768        H  0.47344581  0.36215763  0.12587438     0.10800
C769        C  0.69087702  0.66348098  0.87516870    -0.03000
C770        C  0.69563720  0.67066719  0.89503195    -0.08800
C771        C  0.69948992  0.64401574  0.90760866    -0.16500
C772        C  0.69872400  0.60994360  0.90044123     0.25700
C773        C  0.69599128  0.60359214  0.88054174    -0.18100
C774        C  0.69214782  0.63013773  0.86802066    -0.07000
C775        C  0.69812835  0.58039554  0.91336182    -0.13500
C776        C  0.69563011  0.55395016  0.92335540    -0.13200
C777        C  0.69157052  0.52121332  0.93464697     0.25600
C778        C  0.69186085  0.48907612  0.92559587    -0.18600
C779        C  0.68850450  0.45751710  0.93648160    -0.07100
C780        C  0.68469901  0.45750526  0.95665671    -0.03200
C781        C  0.68374016  0.48972357  0.96558426    -0.08500
C782        C  0.68720209  0.52126742  0.95467327    -0.16100
H783        H  0.69510940  0.69623297  0.90087310     0.12000
H784        H  0.70176110  0.64945088  0.92295547     0.11300
H785        H  0.69530496  0.57744208  0.87475310     0.11300
H786        H  0.68794712  0.62377819  0.85280597     0.11800
H787        H  0.69500096  0.48850095  0.91010799     0.11800
H788        H  0.68931785  0.43328570  0.92910732     0.11800
H789        H  0.68094836  0.49083893  0.98106502     0.12000
H790        H  0.68676196  0.54581285  0.96189553     0.10800
C791        C  0.01026284  0.32502987  0.88633319    -0.03000
C792        C  0.00712048  0.32343578  0.90651304    -0.08800
C793        C  0.97468175  0.32283687  0.91553913    -0.16500
C794        C  0.94486098  0.32390567  0.90454297     0.25700
C795        C  0.94746795  0.32465333  0.88436905    -0.18100
C796        C  0.97993712  0.32505988  0.87530927    -0.07000
C797        C  0.91232924  0.32548669  0.91408648    -0.13500
C798        C  0.88632612  0.32781376  0.92284091    -0.13200
C799        C  0.85648862  0.33136487  0.93413383     0.25600
C800        C  0.82503523  0.33348173  0.92514260    -0.18600
C801        C  0.79637529  0.33716127  0.93619280    -0.07100
C802        C  0.79872869  0.33880997  0.95644982    -0.03200
C803        C  0.83052969  0.33674990  0.96531667    -0.08500
C804        C  0.85907323  0.33305581  0.95425688    -0.16100
H805        H  0.03008257  0.32317112  0.91526983     0.12000
H806        H  0.97311665  0.32217372  0.93112628     0.11300
H807        H  0.92470014  0.32558638  0.87566315     0.11300
H808        H  0.98193192  0.32667157  0.85975435     0.11800
H809        H  0.82264827  0.33229605  0.90959093     0.11800
H810        H  0.77237340  0.33866964  0.92886642     0.11800
H811        H  0.83338355  0.33790248  0.98084130     0.12000
H812        H  0.88322671  0.33152858  0.96143560     0.10800
C813        C  0.78562094  0.45470270  0.04052919    -0.03000
C814        C  0.82044252  0.45435521  0.04592204    -0.08800
C815        C  0.84642334  0.48462761  0.05579647    -0.16500
C816        C  0.83796294  0.51560940  0.06034444     0.25700
C817        C  0.80343592  0.51617306  0.05503595    -0.18100
C818        C  0.77745505  0.48600974  0.04521926    -0.07000
C819        C  0.86410435  0.54678371  0.07072168    -0.13500
C820        C  0.88281435  0.57402893  0.07978611    -0.13200
C821        C  0.90021034  0.60727409  0.09110603     0.25600
C822        C  0.88214777  0.63206781  0.09300292    -0.18600
C823        C  0.89652293  0.66269601  0.10527012    -0.07100
C824        C  0.92933412  0.66914363  0.11574666    -0.03200
C825        C  0.94808272  0.64483680  0.11339985    -0.08500
C826        C  0.93352377  0.61395564  0.10111357    -0.16100
H827        H  0.82764581  0.43075292  0.04249408     0.12000
H828        H  0.87303175  0.48385446  0.05987918     0.11300
H829        H  0.79655521  0.53997864  0.05850853     0.11300
H830        H  0.75104358  0.48734284  0.04123076     0.11800
H831        H  0.85631995  0.62714114  0.08539704     0.11800
H832        H  0.88152838  0.68096559  0.10694167     0.11800
H833        H  0.97299323  0.64883041  0.12164182     0.12000
H834        H  0.94760218  0.59479207  0.09985344     0.10800
C835        C  0.71410311  0.04233961  0.12459341    -0.03000
C836        C  0.71957579  0.07671294  0.13327514    -0.08800
C837        C  0.72159629  0.10737916  0.12199188    -0.16500
C838        C  0.71841654  0.10409041  0.10189051     0.25700
C839        C  0.71452912  0.07031567  0.09313763    -0.18100
C840        C  0.71249498  0.03969730  0.10439999    -0.07000
C841        C  0.71742599  0.13463594  0.09027823    -0.13500
C842        C  0.71523433  0.15926389  0.08029104    -0.13200
C843        C  0.71174707  0.18804448  0.06814867     0.25600
C844        C  0.67643791  0.18667191  0.06284087    -0.18600
C845        C  0.67298928  0.21438640  0.05098367    -0.07100
C846        C  0.70485970  0.24405344  0.04426447    -0.03200
C847        C  0.74023281  0.24518116  0.04968959    -0.08500
C848        C  0.74360272  0.21737723  0.06150396    -0.16100
H849        H  0.72052420  0.07925922  0.14881551     0.12000
H850        H  0.72459280  0.13330325  0.12897260     0.11300
H851        H  0.71214362  0.06735701  0.07762285     0.11300
H852        H  0.70856640  0.01356206  0.09740714     0.11800
H853        H  0.65153741  0.16414280  0.06785201     0.11800
H854        H  0.64533859  0.21261066  0.04712799     0.11800
H855        H  0.76535504  0.26747974  0.04475103     0.12000
H856        H  0.77109972  0.21876711  0.06544464     0.10800
C857        C  0.91558759  0.92850783  0.77470709    -0.03000
C858        C  0.87708993  0.91105114  0.77110491    -0.08800
C859        C  0.85436822  0.88186740  0.78288460    -0.16500
C860        C  0.86962615  0.86991573  0.79859267     0.25700
C861        C  0.90759892  0.88811283  0.80273054    -0.18100
C862        C  0.93032396  0.91728583  0.79097129    -0.07000
C863        C  0.84647458  0.83840481  0.81006872    -0.13500
C864        C  0.82567698  0.81129143  0.81868098    -0.13200
C865        C  0.79767192  0.77859102  0.82731279     0.25600
C866        C  0.78549200  0.77956268  0.84625826    -0.18600
C867        C  0.75357459  0.75050443  0.85321253    -0.07100
C868        C  0.73327527  0.72050482  0.84116636    -0.03200
C869        C  0.74742718  0.71829151  0.82277782    -0.08500
C870        C  0.77944565  0.74708166  0.81592583    -0.16100
H871        H  0.86459852  0.91978936  0.75908926     0.12000
H872        H  0.82494838  0.86834741  0.77960484     0.11300
H873        H  0.91979034  0.87942595  0.81490206     0.11300
H874        H  0.95958181  0.93042049  0.79443901     0.11800
H875        H  0.79921011  0.80380018  0.85522034     0.11800
H876        H  0.74276456  0.75328349  0.86725677     0.11800
H877        H  0.73195336  0.69573517  0.81313964     0.12000
H878        H  0.78848431  0.74588785  0.80126399     0.10800
C879        C  0.96836720  0.05814116  0.77402036    -0.03000
C880        C  0.99356460  0.06963872  0.78951119    -0.08800
C881        C  0.99441270  0.09887804  0.80155594    -0.16500
C882        C  0.97010498  0.11721968  0.79837823     0.25700
C883        C  0.94461889  0.10573152  0.78308626    -0.18100
C884        C  0.94358427  0.07627828  0.77107334    -0.07000
C885        C  0.97257396  0.14862433  0.81040272    -0.13500
C886        C  0.97788870  0.17598860  0.82023339    -0.13200
C887        C  0.98908568  0.21038797  0.83115030     0.25600
C888        C  0.00540380  0.24448170  0.82151044    -0.18600
C889        C  0.02231130  0.27753104  0.83191530    -0.07100
C890        C  0.02294817  0.27716393  0.85215555    -0.03200
C891        C  0.00437818  0.24332662  0.86185075    -0.08500
C892        C  0.98764118  0.21004184  0.85138217    -0.16100
H893        H  0.01319697  0.05650552  0.79210598     0.12000
H894        H  0.01441779  0.10749822  0.81323490     0.11300
H895        H  0.92564277  0.11960974  0.78039571     0.11300
H896        H  0.92333618  0.06761693  0.75952526     0.11800
H897        H  0.00696622  0.24529779  0.80592312     0.11800
H898        H  0.03706053  0.30317512  0.82414379     0.11800
H899        H  0.00536475  0.24221322  0.87742267     0.12000
H900        H  0.97538201  0.18387781  0.85906989     0.10800
C901        C  0.04046342  0.99098010  0.76996605    -0.03000
C902        C  0.03791992  0.95898780  0.78025177    -0.08800
C903        C  0.06670006  0.95981709  0.79261028    -0.16500
C904        C  0.09835674  0.99267373  0.79477758     0.25700
C905        C  0.10151045  0.02435333  0.78402753    -0.18100
C906        C  0.07268677  0.02350842  0.77165702    -0.07000
C907        C  0.12643178  0.99476993  0.80889115    -0.13500
C908        C  0.14971646  0.99965026  0.82127612    -0.13200
C909        C  0.17786378  0.01111265  0.83614100     0.25600
C910        C  0.20982006  0.00265283  0.83486064    -0.18600
C911        C  0.24012746  0.02007932  0.84722505    -0.07100
C912        C  0.23871886  0.04634800  0.86076964    -0.03200
C913        C  0.20553800  0.05241215  0.86293203    -0.08500
C914        C  0.17529091  0.03484403  0.85073390    -0.16100
H915        H  0.01349548  0.93349579  0.77884154     0.12000
H916        H  0.06387807  0.93512267  0.80079201     0.11300
H917        H  0.12577996  0.05000323  0.78561784     0.11300
H918        H  0.07491691  0.04850025  0.76392185     0.11800
H919        H  0.21223018  0.98445532  0.82357753     0.11800
H920        H  0.26571038  0.01560368  0.84505539     0.11800
H921        H  0.20407681  0.07292044  0.87312577     0.12000
H922        H  0.15083099  0.04170243  0.85187709     0.10800
C923        C  0.91520869  0.92462713  0.73007469    -0.03000
C924        C  0.91524406  0.88914612  0.73418328    -0.08800
C925        C  0.89522869  0.85840507  0.72262213    -0.16500
C926        C  0.87524434  0.86266865  0.70661016     0.25700
C927        C  0.87542139  0.89803780  0.70231783    -0.18100
C928        C  0.89543173  0.92882521  0.71389822    -0.07000
C929        C  0.85404502  0.83071774  0.69483277    -0.13500
C930        C  0.83454414  0.80407821  0.68543047    -0.13200
C931        C  0.80753572  0.77296824  0.67510508     0.25600
C932        C  0.79747998  0.77760262  0.65616629    -0.18600
C933        C  0.76533133  0.75102334  0.64786045    -0.07100
C934        C  0.74269326  0.71968549  0.65846826    -0.03200
C935        C  0.75526283  0.71326145  0.67660267    -0.08500
C936        C  0.78738602  0.73977032  0.68489273    -0.16100
H937        H  0.93120259  0.88530201  0.74619433     0.12000
H938        H  0.89550557  0.83133431  0.72612626     0.11300
H939        H  0.86010720  0.90183636  0.69000338     0.11300
H940        H  0.89536069  0.95590725  0.71027414     0.11800
H941        H  0.81262634  0.80317489  0.64842098     0.11800
H942        H  0.75565385  0.75739441  0.63419480     0.11800
H943        H  0.73775515  0.69001429  0.68532992     0.12000
H944        H  0.79463529  0.73576546  0.69956286     0.10800
C945        C  0.96604722  0.05887005  0.72944891    -0.03000
C946        C  0.93921489  0.05398410  0.71501164    -0.08800
C947        C  0.94070594  0.08400508  0.70328609    -0.16500
C948        C  0.96936679  0.11918878  0.70566507     0.25700
C949        C  0.99643847  0.12401243  0.71990843    -0.18100
C950        C  0.99484259  0.09411816  0.73168096    -0.07000
C951        C  0.97168832  0.15031971  0.69342283    -0.13500
C952        C  0.97656290  0.17789605  0.68381529    -0.13200
C953        C  0.98708065  0.21291774  0.67347129     0.25600
C954        C  0.00392519  0.24641083  0.68354574    -0.18600
C955        C  0.02005200  0.28009647  0.67357354    -0.07100
C956        C  0.01960636  0.28099136  0.65331591    -0.03200
C957        C  0.00032467  0.24774527  0.64326852    -0.08500
C958        C  0.98425022  0.21383103  0.65330899    -0.16100
H959        H  0.91701263  0.02699068  0.71290220     0.12000
H960        H  0.91964408  0.07970868  0.69230288     0.11300
H961        H  0.01897517  0.15088372  0.72184097     0.11300
H962        H  0.01638250  0.09836153  0.74238356     0.11800
H963        H  0.00644859  0.24628435  0.69908904     0.11800
H964        H  0.03507824  0.30526100  0.68164971     0.11800
H965        H  0.00027876  0.24752043  0.62767005     0.12000
H966        H  0.97143345  0.18815616  0.64528366     0.10800
C967        C  0.03493931  0.99187408  0.72550170    -0.03000
C968        C  0.05323134  0.96700754  0.72733912    -0.08800
C969        C  0.07952402  0.96665105  0.71355724    -0.16500
C970        C  0.08764273  0.99097232  0.69775376     0.25700
C971        C  0.06952157  0.01578293  0.69591634    -0.18100
C972        C  0.04334829  0.01617709  0.70964001    -0.07000
C973        C  0.11513912  0.99158892  0.68357758    -0.13500
C974        C  0.13890245  0.99649330  0.67144269    -0.13200
C975        C  0.16841989  0.00889320  0.65728485     0.25600
C976        C  0.16827744  0.03509895  0.64348112    -0.18600
C977        C  0.19989972  0.05334230  0.63225761    -0.07100
C978        C  0.23211243  0.04552189  0.63457855    -0.03200
C979        C  0.23118293  0.01709765  0.64734261    -0.08500
C980        C  0.19946994  0.99896002  0.65872876    -0.16100
H981        H  0.04661646  0.94732404  0.73913731     0.12000
H982        H  0.09334085  0.94731576  0.71517383     0.11300
H983        H  0.07566013  0.03490888  0.68385108     0.11300
H984        H  0.02971573  0.03564424  0.70789529     0.11800
H985        H  0.14458251  0.04317890  0.64223567     0.11800
H986        H  0.20011142  0.07539429  0.62263746     0.11800
H987        H  0.25590756  0.01112832  0.64966251     0.12000
H988        H  0.20004603  0.97889177  0.66943530     0.10800
loop_ 
_geom_bond_atom_site_label_1 
_geom_bond_atom_site_label_2 
_geom_bond_distance 
_geom_bond_site_symmetry_2 
_ccdc_geom_bond_type 
C1            H2   1.110       .  S
C1            C7   1.540       .  S
C1            C6   1.539   1_655  S
C1            C5   1.544   1_565  S
C3            H4   1.111       .  S
C3            C9   1.540   1_655  S
C3            C8   1.540   1_565  S
C3           C10   1.542       .  S
C5            C8   1.379       .  D
C5          C879   1.497       .  S
C6            C9   1.374       .  D
C6          C901   1.479       .  S
C7           C10   1.381       .  D
C7          C857   1.498       .  S
C8          C945   1.492       .  S
C9          C967   1.488       .  S
C10         C923   1.493       .  S
O11          C27   1.275       .  A
O11         Zn17   2.014   1_556  S
C12          O28   1.276       .  A
C12          O25   1.276       .  A
C12         C846   1.489       .  S
O13          C26   1.277       .  A
O13         Cd20   2.083       .  S
O14          C32   1.277       .  A
O14         Cd23   2.078       .  S
O15          C29   1.278       .  A
O15         Cd19   2.093       .  S
O16          C27   1.277       .  A
O16         Cd19   2.078       .  S
Zn17         O28   2.034       .  S
Zn17         O30   2.036       .  S
Zn17         O22   1.952   1_554  S
O18          C29   1.276       .  A
O18         Cd23   2.077   1_556  S
Cd19         O21   2.094       .  S
Cd19         O22   2.012       .  S
Cd20         O24   2.078   1_554  S
Cd20         O33   2.065       .  S
Cd20         O22   2.003   1_554  S
O21          C31   1.278       .  A
O22         Cd23   2.005   1_556  S
Cd23         O25   2.080       .  S
O24          C31   1.276       .  A
C26          O30   1.276       .  A
C26         C747   1.490       .  S
C27         C725   1.481       .  S
C29         C802   1.491       .  S
C31         C780   1.492       .  S
C32          O33   1.275       .  A
C32         C813   1.483       .  S
N34          C38   1.359       .  A
N34          C35   1.361       .  A
N34         C769   1.443       .  S
C35         C868   1.480       .  S
C35          C36   1.384       .  A
C36          C37   1.369       .  A
C36          H39   1.083       .  S
C37          C38   1.379       .  A
C37          H40   1.082       .  S
C38         C703   1.475       .  S
O41          C57   1.275       .  A
O41         Zn47   2.012       .  S
C42          O58   1.276       .  A
C42          O55   1.277       .  A
C42         C604   1.488       .  S
O43          C56   1.272       .  A
O43         Cd50   2.055       .  S
O44          C62   1.277       .  A
O44         Cd53   2.088       .  S
O45          C59   1.278       .  A
O45         Cd49   2.082   1_556  S
O46          C57   1.279       .  A
O46         Cd49   2.090       .  S
Zn47         O58   2.031   1_554  S
Zn47         O60   2.032       .  S
Zn47         O52   1.953       .  S
O48          C59   1.278       .  A
O48         Cd53   2.085       .  S
Cd49         O51   2.115       .  S
Cd49         O52   2.014       .  S
Cd50         O54   2.059       .  S
Cd50         O63   2.053   1_554  S
Cd50         O52   1.989       .  S
O51          C61   1.280       .  A
O52         Cd53   2.012   1_554  S
Cd53         O55   2.082       .  S
O54          C61   1.274       .  A
C56          O60   1.276       .  A
C56         C626   1.483       .  S
C57         C659   1.486       .  S
C59         C648   1.487       .  S
C61         C681   1.494       .  S
C62          O63   1.273       .  A
C62         C714   1.483       .  S
N64          C68   1.358       .  A
N64          C65   1.359       .  A
N64         C758   1.441       .  S
C65         C571   1.479       .  S
C65          C66   1.384       .  A
C66          C67   1.368       .  A
C66          H69   1.082       .  S
C67          C68   1.380       .  A
C67          H70   1.082       .  S
C68         C615   1.478       .  S
N71          C75   1.361       .  A
N71          C72   1.360       .  A
N71         C637   1.446       .  S
C72         C912   1.477       .  S
C72          C73   1.383       .  A
C73          C74   1.369       .  A
C73          H76   1.082       .  S
C74          C75   1.381       .  A
C74          H77   1.082       .  S
C75         C736   1.475       .  S
N78          C82   1.360       .  A
N78          C79   1.359       .  A
N78         C670   1.441   1_655  S
C79         C549   1.478   1_655  S
C79          C80   1.382       .  A
C80          C81   1.371       .  A
C80          H83   1.082       .  S
C81          C82   1.382       .  A
C81          H84   1.082       .  S
C82         C824   1.480       .  S
N85          C89   1.362       .  A
N85          C86   1.362       .  A
N85         C791   1.443       .  S
C86         C890   1.482       .  S
C86          C87   1.383       .  A
C87          C88   1.372       .  A
C87          H90   1.082       .  S
C88          C89   1.381       .  A
C88          H91   1.082       .  S
C89         C593   1.482       .  S
N92          C96   1.364   1_545  A
N92          C93   1.364       .  A
N92         C835   1.442       .  S
C93         C538   1.487       .  S
C93          C94   1.383   1_545  A
C94          C95   1.373       .  A
C94          H97   1.082       .  S
C95          C96   1.381       .  A
C95          H98   1.082       .  S
C96         C692   1.487       .  S
O99         C115   1.277       .  A
O99        Zn105   2.039       .  S
C100        O116   1.276       .  A
C100        O113   1.279       .  A
C100        C439   1.490       .  S
O101        C114   1.279       .  A
O101       Cd108   2.100       .  S
O102        C120   1.279       .  A
O102       Cd111   2.098       .  S
O103        C117   1.277       .  A
O103       Cd107   2.079       .  S
O104        C115   1.276       .  A
O104       Cd107   2.082       .  S
Zn105       O116   2.024       .  S
Zn105       O118   2.023       .  S
Zn105       O110   1.953       .  S
O106        C117   1.279       .  A
O106       Cd111   2.097       .  S
Cd107       O109   2.077       .  S
Cd107       O110   2.008       .  S
Cd108       O112   2.081       .  S
Cd108       O121   2.095       .  S
Cd108       O110   2.013       .  S
O109        C119   1.276       .  A
O110       Cd111   2.014       .  S
Cd111       O113   2.095       .  S
O112        C119   1.277       .  A
C114        O118   1.275       .  A
C114        C461   1.492       .  S
C115        C428   1.491       .  S
C117        C406   1.492       .  S
C119        C483   1.487       .  S
C120        O121   1.279       .  A
C120        C516   1.497       .  S
N122        C126   1.364       .  A
N122        C123   1.364       .  A
N122        C505   1.447       .  S
C123        C934   1.477       .  S
C123        C124   1.381       .  A
C124        C125   1.365       .  A
C124        H127   1.083       .  S
C125        C126   1.382       .  A
C125        H128   1.082       .  S
C126        C373   1.485       .  S
O129        C145   1.276       .  A
O129       Zn135   2.022       .  S
C130        O146   1.276       .  A
C130        O143   1.277       .  A
C130        C351   1.487       .  S
O131        C144   1.272       .  A
O131       Cd138   2.052       .  S
O132        C150   1.277       .  A
O132       Cd141   2.094       .  S
O133        C147   1.280       .  A
O133       Cd137   2.103       .  S
O134        C145   1.277       .  A
O134       Cd137   2.082       .  S
Zn135       O146   2.024       .  S
Zn135       O148   2.042       .  S
Zn135       O140   1.955       .  S
O136        C147   1.277       .  A
O136       Cd141   2.075       .  S
Cd137       O139   2.098       .  S
Cd137       O140   2.016       .  S
Cd138       O142   2.050       .  S
Cd138       O151   2.054       .  S
Cd138       O140   1.988       .  S
O139        C149   1.278       .  A
O140       Cd141   2.007       .  S
Cd141       O143   2.082       .  S
O142        C149   1.272       .  A
C144        O148   1.276       .  A
C144        C296   1.484       .  S
C145        C263   1.485       .  S
C147        C307   1.492       .  S
C149        C384   1.485       .  S
C150        O151   1.273       .  A
C150        C340   1.486       .  S
N152        C156   1.361       .  A
N152        C153   1.361       .  A
N152        C318   1.442       .  S
C153        C978   1.481       .  S
C153        C154   1.383       .  A
C154        C155   1.371       .  A
C154        H157   1.082       .  S
C155        C156   1.382       .  A
C155        H158   1.082       .  S
C156        C450   1.483       .  S
N159        C163   1.364       .  A
N159        C160   1.364       .  A
N159        C395   1.446       .  S
C160        C956   1.485       .  S
C160        C161   1.383       .  A
C161        C162   1.369       .  A
C161        H164   1.082       .  S
C162        C163   1.381       .  A
C162        H165   1.082       .  S
C163        C274   1.484       .  S
N166        C170   1.360       .  A
N166        C167   1.359       .  A
N166        C362   1.444   1_655  S
C167        C241   1.475   1_655  S
C167        C168   1.382       .  A
C168        C169   1.371       .  A
C168        H171   1.082       .  S
C169        C170   1.382       .  A
C169        H172   1.082       .  S
C170        C494   1.479       .  S
N173        C177   1.359       .  A
N173        C174   1.359       .  A
N173        C472   1.442       .  S
C174        C219   1.476       .  S
C174        C175   1.382       .  A
C175        C176   1.370       .  A
C175        H178   1.083       .  S
C176        C177   1.382       .  A
C176        H179   1.082       .  S
C177        C285   1.482       .  S
N180        C184   1.362   1_545  A
N180        C181   1.360   1_545  A
N180        C417   1.441       .  S
C181        C197   1.480   1_565  S
C181        C182   1.382       .  A
C182        C183   1.371       .  A
C182        H185   1.082       .  S
C183        C184   1.383       .  A
C183        H186   1.082       .  S
C184        C329   1.484       .  S
C187        H188   1.111       .  S
C187        C193   1.532       .  S
C187        C192   1.542       .  S
C187        C191   1.547       .  S
C189        H190   1.111       .  S
C189        C195   1.540       .  S
C189        C194   1.538       .  S
C189        C196   1.542       .  S
C191        C194   1.381       .  D
C191        C208   1.494   1_455  S
C192        C195   1.379       .  D
C192        C230   1.499       .  S
C193        C196   1.374       .  D
C193        C252   1.477       .  S
C194        C527   1.496   1_455  S
C195        C582   1.485       .  S
C196        C560   1.488       .  S
C197        C198   1.405       .  A
C197        C202   1.405       .  A
C198        C199   1.406       .  A
C198        H211   1.083       .  S
C199        C200   1.405       .  A
C199        H212   1.083       .  S
C200        C201   1.399       .  A
C200        C203   1.448       .  S
C201        C202   1.397       .  A
C201        H213   1.084       .  S
C202        H214   1.083       .  S
C203        C204   1.211       .  T
C204        C205   1.449       .  S
C205        C206   1.402       .  A
C205        C210   1.401       .  A
C206        C207   1.403       .  A
C206        H215   1.083       .  S
C207        C208   1.408       .  A
C207        H216   1.082       .  S
C208        C209   1.407       .  A
C209        C210   1.400       .  A
C209        H217   1.083       .  S
C210        H218   1.083       .  S
C219        C220   1.405       .  A
C219        C224   1.405       .  A
C220        C221   1.400       .  A
C220        H233   1.083       .  S
C221        C222   1.401       .  A
C221        H234   1.083       .  S
C222        C223   1.402       .  A
C222        C225   1.447       .  S
C223        C224   1.402       .  A
C223        H235   1.083       .  S
C224        H236   1.083       .  S
C225        C226   1.211       .  T
C226        C227   1.448       .  S
C227        C228   1.399       .  A
C227        C232   1.403       .  A
C228        C229   1.401       .  A
C228        H237   1.083       .  S
C229        C230   1.408       .  A
C229        H238   1.080       .  S
C230        C231   1.407       .  A
C231        C232   1.402       .  A
C231        H239   1.082       .  S
C232        H240   1.083       .  S
C241        C242   1.404       .  A
C241        C246   1.404       .  A
C242        C243   1.401       .  A
C242        H255   1.083       .  S
C243        C244   1.402       .  A
C243        H256   1.083       .  S
C244        C245   1.400       .  A
C244        C247   1.442       .  S
C245        C246   1.397       .  A
C245        H257   1.084       .  S
C246        H258   1.083       .  S
C247        C248   1.207       .  T
C248        C249   1.442       .  S
C249        C250   1.400       .  A
C249        C254   1.403       .  A
C250        C251   1.399   1_565  A
C250        H259   1.083       .  S
C251        C252   1.403       .  A
C251        H260   1.082       .  S
C252        C253   1.401   1_545  A
C253        C254   1.400       .  A
C253        H261   1.083   1_455  S
C254        H262   1.083   1_455  S
C263        C264   1.409       .  A
C263        C268   1.407       .  A
C264        C265   1.401       .  A
C264        H277   1.083       .  S
C265        C266   1.400       .  A
C265        H278   1.083       .  S
C266        C267   1.401       .  A
C266        C269   1.444       .  S
C267        C268   1.399       .  A
C267        H279   1.084       .  S
C268        H280   1.083       .  S
C269        C270   1.209       .  T
C270        C271   1.444       .  S
C271        C272   1.403       .  A
C271        C276   1.399       .  A
C272        C273   1.404       .  A
C272        H281   1.083       .  S
C273        C274   1.406       .  A
C273        H282   1.083       .  S
C274        C275   1.406       .  A
C275        C276   1.396       .  A
C275        H283   1.083       .  S
C276        H284   1.084       .  S
C285        C286   1.405       .  A
C285        C290   1.406       .  A
C286        C287   1.399       .  A
C286        H299   1.082       .  S
C287        C288   1.401       .  A
C287        H300   1.083       .  S
C288        C289   1.399       .  A
C288        C291   1.440       .  S
C289        C290   1.397       .  A
C289        H301   1.084       .  S
C290        H302   1.083       .  S
C291        C292   1.206       .  T
C292        C293   1.440       .  S
C293        C294   1.397       .  A
C293        C298   1.402       .  A
C294        C295   1.397       .  A
C294        H303   1.084       .  S
C295        C296   1.409       .  A
C295        H304   1.083       .  S
C296        C297   1.407       .  A
C297        C298   1.401       .  A
C297        H305   1.083       .  S
C298        H306   1.083       .  S
C307        C308   1.409       .  A
C307        C312   1.410       .  A
C308        C309   1.405       .  A
C308        H321   1.083       .  S
C309        C310   1.403       .  A
C309        H322   1.083       .  S
C310        C311   1.399       .  A
C310        C313   1.448       .  S
C311        C312   1.399       .  A
C311        H323   1.084       .  S
C312        H324   1.083       .  S
C313        C314   1.211       .  T
C314        C315   1.448       .  S
C315        C316   1.403       .  A
C315        C320   1.402       .  A
C316        C317   1.402   1_565  A
C316        H325   1.083       .  S
C317        C318   1.405       .  A
C317        H326   1.082       .  S
C318        C319   1.405       .  A
C319        C320   1.400   1_545  A
C319        H327   1.083       .  S
C320        H328   1.083       .  S
C329        C330   1.405       .  A
C329        C334   1.407       .  A
C330        C331   1.395       .  A
C330        H343   1.083       .  S
C331        C332   1.399       .  A
C331        H344   1.084       .  S
C332        C333   1.403       .  A
C332        C335   1.443       .  S
C333        C334   1.404       .  A
C333        H345   1.083       .  S
C334        H346   1.082   1_565  S
C335        C336   1.208       .  T
C336        C337   1.443       .  S
C337        C338   1.402       .  A
C337        C342   1.398       .  A
C338        C339   1.404       .  A
C338        H347   1.083       .  S
C339        C340   1.409       .  A
C339        H348   1.083       .  S
C340        C341   1.408       .  A
C341        C342   1.395       .  A
C341        H349   1.083       .  S
C342        H350   1.084       .  S
C351        C352   1.408       .  A
C351        C356   1.409       .  A
C352        C353   1.401       .  A
C352        H365   1.083       .  S
C353        C354   1.400       .  A
C353        H366   1.084       .  S
C354        C355   1.400       .  A
C354        C357   1.445       .  S
C355        C356   1.400       .  A
C355        H367   1.083       .  S
C356        H368   1.083       .  S
C357        C358   1.209       .  T
C358        C359   1.445       .  S
C359        C360   1.401       .  A
C359        C364   1.401       .  A
C360        C361   1.400       .  A
C360        H369   1.084       .  S
C361        C362   1.406       .  A
C361        H370   1.082   1_455  S
C362        C363   1.405       .  A
C363        C364   1.400       .  A
C363        H371   1.083       .  S
C364        H372   1.083       .  S
C373        C374   1.408       .  A
C373        C378   1.406       .  A
C374        C375   1.396       .  A
C374        H387   1.083       .  S
C375        C376   1.397       .  A
C375        H388   1.084       .  S
C376        C377   1.403       .  A
C376        C379   1.442       .  S
C377        C378   1.402       .  A
C377        H389   1.083       .  S
C378        H390   1.082       .  S
C379        C380   1.207       .  T
C380        C381   1.442       .  S
C381        C382   1.397       .  A
C381        C386   1.402       .  A
C382        C383   1.396       .  A
C382        H391   1.084       .  S
C383        C384   1.409       .  A
C383        H392   1.083       .  S
C384        C385   1.407       .  A
C385        C386   1.403       .  A
C385        H393   1.083       .  S
C386        H394   1.083       .  S
C395        C396   1.406       .  A
C395        C400   1.406   1_455  A
C396        C397   1.400   1_455  A
C396        H409   1.082       .  S
C397        C398   1.401       .  A
C397        H410   1.083       .  S
C398        C399   1.403       .  A
C398        C401   1.450       .  S
C399        C400   1.404       .  A
C399        H411   1.083       .  S
C400        H412   1.083       .  S
C401        C402   1.212       .  T
C402        C403   1.450       .  S
C403        C404   1.402       .  A
C403        C408   1.401       .  A
C404        C405   1.404       .  A
C404        H413   1.083       .  S
C405        C406   1.409       .  A
C405        H414   1.083       .  S
C406        C407   1.410       .  A
C407        C408   1.402       .  A
C407        H415   1.083       .  S
C408        H416   1.084       .  S
C417        C418   1.404       .  A
C417        C422   1.404       .  A
C418        C419   1.403       .  A
C418        H431   1.083       .  S
C419        C420   1.403       .  A
C419        H432   1.083       .  S
C420        C421   1.401       .  A
C420        C423   1.448       .  S
C421        C422   1.399       .  A
C421        H433   1.083       .  S
C422        H434   1.083       .  S
C423        C424   1.211       .  T
C424        C425   1.448       .  S
C425        C426   1.401       .  A
C425        C430   1.401       .  A
C426        C427   1.402       .  A
C426        H435   1.083       .  S
C427        C428   1.409       .  A
C427        H436   1.083       .  S
C428        C429   1.409       .  A
C429        C430   1.402       .  A
C429        H437   1.083       .  S
C430        H438   1.084       .  S
C439        C440   1.408       .  A
C439        C444   1.410       .  A
C440        C441   1.403       .  A
C440        H453   1.083       .  S
C441        C442   1.402       .  A
C441        H454   1.083       .  S
C442        C443   1.399       .  A
C442        C445   1.447       .  S
C443        C444   1.400       .  A
C443        H455   1.083       .  S
C444        H456   1.083       .  S
C445        C446   1.210       .  T
C446        C447   1.446       .  S
C447        C448   1.404       .  A
C447        C452   1.399       .  A
C448        C449   1.405       .  A
C448        H457   1.083       .  S
C449        C450   1.406       .  A
C449        H458   1.083       .  S
C450        C451   1.405       .  A
C451        C452   1.397       .  A
C451        H459   1.083       .  S
C452        H460   1.084       .  S
C461        C462   1.408       .  A
C461        C466   1.411       .  A
C462        C463   1.403       .  A
C462        H475   1.083       .  S
C463        C464   1.402       .  A
C463        H476   1.084       .  S
C464        C465   1.400       .  A
C464        C467   1.449       .  S
C465        C466   1.402       .  A
C465        H477   1.083       .  S
C466        H478   1.083       .  S
C467        C468   1.212       .  T
C468        C469   1.449       .  S
C469        C470   1.406       .  A
C469        C474   1.399       .  A
C470        C471   1.407       .  A
C470        H479   1.083       .  S
C471        C472   1.404       .  A
C471        H480   1.081       .  S
C472        C473   1.405       .  A
C473        C474   1.397       .  A
C473        H481   1.083       .  S
C474        H482   1.084       .  S
C483        C484   1.410       .  A
C483        C488   1.408       .  A
C484        C485   1.402       .  A
C484        H497   1.083       .  S
C485        C486   1.400       .  A
C485        H498   1.083       .  S
C486        C487   1.400       .  A
C486        C489   1.443       .  S
C487        C488   1.398       .  A
C487        H499   1.084       .  S
C488        H500   1.083       .  S
C489        C490   1.208       .  T
C490        C491   1.442       .  S
C491        C492   1.399       .  A
C491        C496   1.403       .  A
C492        C493   1.395       .  A
C492        H501   1.084       .  S
C493        C494   1.404       .  A
C493        H502   1.083       .  S
C494        C495   1.405       .  A
C495        C496   1.403       .  A
C495        H503   1.083       .  S
C496        H504   1.083       .  S
C505        C506   1.406       .  A
C505        C510   1.406       .  A
C506        C507   1.399       .  A
C506        H519   1.083       .  S
C507        C508   1.400       .  A
C507        H520   1.084       .  S
C508        C509   1.407       .  A
C508        C511   1.455       .  S
C509        C510   1.410       .  A
C509        H521   1.083       .  S
C510        H522   1.082       .  S
C511        C512   1.216       .  T
C512        C513   1.456       .  S
C513        C514   1.403       .  A
C513        C518   1.402       .  A
C514        C515   1.405       .  A
C514        H523   1.083       .  S
C515        C516   1.410       .  A
C515        H524   1.083       .  S
C516        C517   1.410       .  A
C517        C518   1.405       .  A
C517        H525   1.083       .  S
C518        H526   1.083       .  S
C527        C528   1.407       .  A
C527        C532   1.406       .  A
C528        C529   1.405       .  A
C528        H541   1.079   1_655  S
C529        C530   1.402       .  A
C529        H542   1.084       .  S
C530        C531   1.403       .  A
C530        C533   1.455       .  S
C531        C532   1.403       .  A
C531        H543   1.083       .  S
C532        H544   1.083       .  S
C533        C534   1.215       .  T
C534        C535   1.454       .  S
C535        C536   1.400       .  A
C535        C540   1.406       .  A
C536        C537   1.400       .  A
C536        H545   1.084       .  S
C537        C538   1.406       .  A
C537        H546   1.083       .  S
C538        C539   1.406       .  A
C539        C540   1.409       .  A
C539        H547   1.083       .  S
C540        H548   1.083       .  S
C549        C550   1.404       .  A
C549        C554   1.405       .  A
C550        C551   1.396       .  A
C550        H563   1.083   1_455  S
C551        C552   1.399       .  A
C551        H564   1.084       .  S
C552        C553   1.404       .  A
C552        C555   1.444       .  S
C553        C554   1.404       .  A
C553        H565   1.083       .  S
C554        H566   1.083       .  S
C555        C556   1.209       .  T
C556        C557   1.445       .  S
C557        C558   1.402       .  A
C557        C562   1.400       .  A
C558        C559   1.401       .  A
C558        H567   1.083       .  S
C559        C560   1.405   1_565  A
C559        H568   1.083   1_565  S
C560        C561   1.406   1_545  A
C561        C562   1.400       .  A
C561        H569   1.080       .  S
C562        H570   1.084       .  S
C571        C572   1.406       .  A
C571        C576   1.405       .  A
C572        C573   1.403       .  A
C572        H585   1.083       .  S
C573        C574   1.403       .  A
C573        H586   1.083       .  S
C574        C575   1.399       .  A
C574        C577   1.445       .  S
C575        C576   1.397       .  A
C575        H587   1.084       .  S
C576        H588   1.083       .  S
C577        C578   1.209       .  T
C578        C579   1.445       .  S
C579        C580   1.401       .  A
C579        C584   1.402       .  A
C580        C581   1.400       .  A
C580        H589   1.083       .  S
C581        C582   1.405       .  A
C581        H590   1.084       .  S
C582        C583   1.404       .  A
C583        C584   1.401       .  A
C583        H591   1.080       .  S
C584        H592   1.084       .  S
C593        C594   1.405       .  A
C593        C598   1.404       .  A
C594        C595   1.404       .  A
C594        H607   1.083       .  S
C595        C596   1.404       .  A
C595        H608   1.083       .  S
C596        C597   1.400       .  A
C596        C599   1.447       .  S
C597        C598   1.398       .  A
C597        H609   1.084       .  S
C598        H610   1.083       .  S
C599        C600   1.210       .  T
C600        C601   1.447       .  S
C601        C602   1.402       .  A
C601        C606   1.400       .  A
C602        C603   1.403       .  A
C602        H611   1.083       .  S
C603        C604   1.409       .  A
C603        H612   1.083       .  S
C604        C605   1.408       .  A
C605        C606   1.400       .  A
C605        H613   1.083       .  S
C606        H614   1.084       .  S
C615        C616   1.405       .  A
C615        C620   1.405       .  A
C616        C617   1.397       .  A
C616        H629   1.083       .  S
C617        C618   1.399       .  A
C617        H630   1.083       .  S
C618        C619   1.401       .  A
C618        C621   1.440       .  S
C619        C620   1.400       .  A
C619        H631   1.084       .  S
C620        H632   1.081       .  S
C621        C622   1.206       .  T
C622        C623   1.440       .  S
C623        C624   1.401       .  A
C623        C628   1.398       .  A
C624        C625   1.400       .  A
C624        H633   1.083       .  S
C625        C626   1.407       .  A
C625        H634   1.083       .  S
C626        C627   1.409       .  A
C627        C628   1.397       .  A
C627        H635   1.083       .  S
C628        H636   1.084       .  S
C637        C638   1.406       .  A
C637        C642   1.407       .  A
C638        C639   1.401   1_545  A
C638        H651   1.082       .  S
C639        C640   1.401       .  A
C639        H652   1.083       .  S
C640        C641   1.401       .  A
C640        C643   1.446       .  S
C641        C642   1.401   1_565  A
C641        H653   1.083       .  S
C642        H654   1.082       .  S
C643        C644   1.210       .  T
C644        C645   1.446       .  S
C645        C646   1.402       .  A
C645        C650   1.400       .  A
C646        C647   1.403       .  A
C646        H655   1.083       .  S
C647        C648   1.409       .  A
C647        H656   1.083       .  S
C648        C649   1.408       .  A
C649        C650   1.399       .  A
C649        H657   1.083       .  S
C650        H658   1.084       .  S
C659        C660   1.407       .  A
C659        C664   1.409       .  A
C660        C661   1.401       .  A
C660        H673   1.083       .  S
C661        C662   1.401       .  A
C661        H674   1.084       .  S
C662        C663   1.399       .  A
C662        C665   1.443       .  S
C663        C664   1.398       .  A
C663        H675   1.083       .  S
C664        H676   1.083       .  S
C665        C666   1.208       .  T
C666        C667   1.443       .  S
C667        C668   1.401       .  A
C667        C672   1.401       .  A
C668        C669   1.400       .  A
C668        H677   1.083       .  S
C669        C670   1.405       .  A
C669        H678   1.083       .  S
C670        C671   1.405       .  A
C671        C672   1.399       .  A
C671        H679   1.082   1_455  S
C672        H680   1.084       .  S
C681        C682   1.409       .  A
C681        C686   1.410       .  A
C682        C683   1.408       .  A
C682        H695   1.083       .  S
C683        C684   1.405       .  A
C683        H696   1.083       .  S
C684        C685   1.399       .  A
C684        C687   1.452       .  S
C685        C686   1.398       .  A
C685        H697   1.084       .  S
C686        H698   1.083       .  S
C687        C688   1.213       .  T
C688        C689   1.452       .  S
C689        C690   1.400       .  A
C689        C694   1.405       .  A
C690        C691   1.398       .  A
C690        H699   1.084       .  S
C691        C692   1.405       .  A
C691        H700   1.083       .  S
C692        C693   1.406       .  A
C693        C694   1.408       .  A
C693        H701   1.083   1_565  S
C694        H702   1.083       .  S
C703        C704   1.404       .  A
C703        C708   1.404       .  A
C704        C705   1.399       .  A
C704        H717   1.083       .  S
C705        C706   1.400       .  A
C705        H718   1.083       .  S
C706        C707   1.400       .  A
C706        C709   1.441       .  S
C707        C708   1.398       .  A
C707        H719   1.084       .  S
C708        H720   1.082       .  S
C709        C710   1.207       .  T
C710        C711   1.441       .  S
C711        C712   1.397       .  A
C711        C716   1.402       .  A
C712        C713   1.396       .  A
C712        H721   1.084       .  S
C713        C714   1.409       .  A
C713        H722   1.083       .  S
C714        C715   1.407       .  A
C715        C716   1.401       .  A
C715        H723   1.083       .  S
C716        H724   1.083       .  S
C725        C726   1.408       .  A
C725        C730   1.407       .  A
C726        C727   1.397       .  A
C726        H739   1.083       .  S
C727        C728   1.398       .  A
C727        H740   1.084       .  S
C728        C729   1.400       .  A
C728        C731   1.438       .  S
C729        C730   1.399       .  A
C729        H741   1.084       .  S
C730        H742   1.083       .  S
C731        C732   1.205       .  T
C732        C733   1.438       .  S
C733        C734   1.398       .  A
C733        C738   1.402       .  A
C734        C735   1.395       .  A
C734        H743   1.084       .  S
C735        C736   1.404       .  A
C735        H744   1.083       .  S
C736        C737   1.403       .  A
C737        C738   1.400       .  A
C737        H745   1.083       .  S
C738        H746   1.083       .  S
C747        C748   1.409       .  A
C747        C752   1.408       .  A
C748        C749   1.403       .  A
C748        H761   1.083       .  S
C749        C750   1.401       .  A
C749        H762   1.083       .  S
C750        C751   1.401       .  A
C750        C753   1.449       .  S
C751        C752   1.401       .  A
C751        H763   1.084       .  S
C752        H764   1.083       .  S
C753        C754   1.211       .  T
C754        C755   1.448       .  S
C755        C756   1.405       .  A
C755        C760   1.399       .  A
C756        C757   1.406       .  A
C756        H765   1.083       .  S
C757        C758   1.404       .  A
C757        H766   1.082       .  S
C758        C759   1.404       .  A
C759        C760   1.397       .  A
C759        H767   1.083       .  S
C760        H768   1.084       .  S
C769        C770   1.405       .  A
C769        C774   1.406       .  A
C770        C771   1.405       .  A
C770        H783   1.080       .  S
C771        C772   1.404       .  A
C771        H784   1.083       .  S
C772        C773   1.400       .  A
C772        C775   1.450       .  S
C773        C774   1.399       .  A
C773        H785   1.083       .  S
C774        H786   1.083       .  S
C775        C776   1.212       .  T
C776        C777   1.450       .  S
C777        C778   1.402       .  A
C777        C782   1.401       .  A
C778        C779   1.403       .  A
C778        H787   1.083       .  S
C779        C780   1.408       .  A
C779        H788   1.083       .  S
C780        C781   1.410       .  A
C781        C782   1.402       .  A
C781        H789   1.083       .  S
C782        H790   1.084       .  S
C791        C792   1.405       .  A
C791        C796   1.405   1_455  A
C792        C793   1.399   1_455  A
C792        H805   1.083       .  S
C793        C794   1.401       .  A
C793        H806   1.084       .  S
C794        C795   1.404       .  A
C794        C797   1.449       .  S
C795        C796   1.404       .  A
C795        H807   1.083       .  S
C796        H808   1.083       .  S
C797        C798   1.212       .  T
C798        C799   1.449       .  S
C799        C800   1.402       .  A
C799        C804   1.400       .  A
C800        C801   1.404       .  A
C800        H809   1.083       .  S
C801        C802   1.409       .  A
C801        H810   1.083       .  S
C802        C803   1.409       .  A
C803        C804   1.401       .  A
C803        H811   1.083       .  S
C804        H812   1.084       .  S
C813        C814   1.408       .  A
C813        C818   1.408       .  A
C814        C815   1.401       .  A
C814        H827   1.083       .  S
C815        C816   1.400       .  A
C815        H828   1.083       .  S
C816        C817   1.399       .  A
C816        C819   1.440       .  S
C817        C818   1.396       .  A
C817        H829   1.084       .  S
C818        H830   1.083       .  S
C819        C820   1.206       .  T
C820        C821   1.440       .  S
C821        C822   1.398       .  A
C821        C826   1.402       .  A
C822        C823   1.394       .  A
C822        H831   1.084       .  S
C823        C824   1.404       .  A
C823        H832   1.083       .  S
C824        C825   1.406       .  A
C825        C826   1.403       .  A
C825        H833   1.083       .  S
C826        H834   1.083       .  S
C835        C836   1.405       .  A
C835        C840   1.405       .  A
C836        C837   1.402       .  A
C836        H849   1.083       .  S
C837        C838   1.402       .  A
C837        H850   1.083       .  S
C838        C839   1.401       .  A
C838        C841   1.447       .  S
C839        C840   1.400       .  A
C839        H851   1.083       .  S
C840        H852   1.082       .  S
C841        C842   1.210       .  T
C842        C843   1.447       .  S
C843        C844   1.401       .  A
C843        C848   1.400       .  A
C844        C845   1.401       .  A
C844        H853   1.083       .  S
C845        C846   1.409       .  A
C845        H854   1.083       .  S
C846        C847   1.409       .  A
C847        C848   1.401       .  A
C847        H855   1.083       .  S
C848        H856   1.084       .  S
C857        C858   1.408       .  A
C857        C862   1.408       .  A
C858        C859   1.402       .  A
C858        H871   1.083       .  S
C859        C860   1.402       .  A
C859        H872   1.083       .  S
C860        C861   1.399       .  A
C860        C863   1.448       .  S
C861        C862   1.401       .  A
C861        H873   1.084       .  S
C862        H874   1.080       .  S
C863        C864   1.211       .  T
C864        C865   1.448       .  S
C865        C866   1.403       .  A
C865        C870   1.400       .  A
C866        C867   1.404       .  A
C866        H875   1.083       .  S
C867        C868   1.406       .  A
C867        H876   1.083       .  S
C868        C869   1.406       .  A
C869        C870   1.399       .  A
C869        H877   1.083       .  S
C870        H878   1.084       .  S
C879        C880   1.407       .  A
C879        C884   1.409       .  A
C880        C881   1.401       .  A
C880        H893   1.083   1_655  S
C881        C882   1.401       .  A
C881        H894   1.083   1_655  S
C882        C883   1.403       .  A
C882        C885   1.451       .  S
C883        C884   1.404       .  A
C883        H895   1.083       .  S
C884        H896   1.082       .  S
C885        C886   1.213       .  T
C886        C887   1.451       .  S
C887        C888   1.400   1_655  A
C887        C892   1.405       .  A
C888        C889   1.399       .  A
C888        H897   1.084       .  S
C889        C890   1.405       .  A
C889        H898   1.083       .  S
C890        C891   1.405       .  A
C891        C892   1.407   1_455  A
C891        H899   1.083       .  S
C892        H900   1.083       .  S
C901        C902   1.403       .  A
C901        C906   1.402   1_565  A
C902        C903   1.400       .  A
C902        H915   1.082       .  S
C903        C904   1.400       .  A
C903        H916   1.083       .  S
C904        C905   1.404   1_565  A
C904        C907   1.445       .  S
C905        C906   1.401       .  A
C905        H917   1.083       .  S
C906        H918   1.083       .  S
C907        C908   1.209       .  T
C908        C909   1.444   1_565  S
C909        C910   1.403       .  A
C909        C914   1.399       .  A
C910        C911   1.404       .  A
C910        H919   1.083   1_545  S
C911        C912   1.404       .  A
C911        H920   1.083       .  S
C912        C913   1.404       .  A
C913        C914   1.396       .  A
C913        H921   1.084       .  S
C914        H922   1.084       .  S
C923        C924   1.408       .  A
C923        C928   1.405       .  A
C924        C925   1.401       .  A
C924        H937   1.083       .  S
C925        C926   1.401       .  A
C925        H938   1.083       .  S
C926        C927   1.403       .  A
C926        C929   1.451       .  S
C927        C928   1.403       .  A
C927        H939   1.083       .  S
C928        H940   1.083       .  S
C929        C930   1.213       .  T
C930        C931   1.450       .  S
C931        C932   1.402       .  A
C931        C936   1.401       .  A
C932        C933   1.404       .  A
C932        H941   1.083       .  S
C933        C934   1.406       .  A
C933        H942   1.083       .  S
C934        C935   1.406       .  A
C935        C936   1.401       .  A
C935        H943   1.083       .  S
C936        H944   1.083       .  S
C945        C946   1.405       .  A
C945        C950   1.406       .  A
C946        C947   1.405       .  A
C946        H959   1.082       .  S
C947        C948   1.403       .  A
C947        H960   1.083       .  S
C948        C949   1.403       .  A
C948        C951   1.452       .  S
C949        C950   1.401       .  A
C949        H961   1.083   1_655  S
C950        H962   1.083   1_655  S
C951        C952   1.213       .  T
C952        C953   1.451       .  S
C953        C954   1.399   1_655  A
C953        C958   1.405       .  A
C954        C955   1.398       .  A
C954        H963   1.084       .  S
C955        C956   1.407       .  A
C955        H964   1.083       .  S
C956        C957   1.405       .  A
C957        C958   1.407   1_455  A
C957        H965   1.083       .  S
C958        H966   1.083       .  S
C967        C968   1.407       .  A
C967        C972   1.405   1_565  A
C968        C969   1.403       .  A
C968        H981   1.082       .  S
C969        C970   1.402       .  A
C969        H982   1.083       .  S
C970        C971   1.400   1_565  A
C970        C973   1.446       .  S
C971        C972   1.398       .  A
C971        H983   1.083       .  S
C972        H984   1.083       .  S
C973        C974   1.210       .  T
C974        C975   1.445   1_565  S
C975        C976   1.399       .  A
C975        C980   1.404   1_545  A
C976        C977   1.397       .  A
C976        H985   1.084       .  S
C977        C978   1.405       .  A
C977        H986   1.083       .  S
C978        C979   1.405       .  A
C979        C980   1.405   1_545  A
C979        H987   1.083       .  S
C980        H988   1.083       .  S
