geometry optimzed in LAMMPS
_audit_creation_date              2020-11-30 
_audit_creation_method            'lammps2cif' 
_symmetry_space_group_name_H-M    'P1' 
_symmetry_Int_Tables_number       1 
_symmetry_cell_setting            triclinic 
loop_ 
_symmetry_equiv_pos_as_xyz 
  x,y,z 
_cell_length_a                    40.21220963 
_cell_length_b                    21.889965864262482 
_cell_length_c                    23.21098750023222 
_cell_angle_alpha                 90.08202164439342 
_cell_angle_beta                  90.38803136862505 
_cell_angle_gamma                 89.46143006139968 
loop_ 
_atom_site_label 
_atom_site_type_symbol 
_atom_site_fract_x 
_atom_site_fract_y 
_atom_site_fract_z 
_atom_site_charge 
C1          C  0.44051095  0.86913259  0.87698938    -0.03500
O2          O  0.39252644  0.89348319  0.51383356    -0.81100
O3          O  0.39310716  0.83551249  0.23534580    -0.81100
O4          O  0.40363420  0.98758316  0.34240002    -0.81100
O5          O  0.40956552  0.74333784  0.40961251    -0.81100
O6          O  0.37775816  0.90128724  0.33075877    -0.81200
O7          O  0.38103379  0.82752727  0.41482628    -0.81100
O8          O  0.41258554  0.76020268  0.29193710    -0.81100
O9          O  0.40970292  0.97167678  0.45927965    -0.81100
C10         C  0.39190177  0.95044999  0.50175214     1.08600
C11         C  0.39338925  0.77899820  0.24951686     1.08500
C12         C  0.37734385  0.95840686  0.33163949     1.08600
C13         C  0.38382754  0.77201797  0.42538319     1.08500
O14         O  0.43967395  0.79207015  0.49258803    -0.81100
O15         O  0.43642526  0.94349330  0.25772375    -0.81200
O16         O  0.48337977  0.94938108  0.43413459    -0.81100
O17         O  0.48637600  0.79084603  0.31663645    -0.81100
O18         O  0.45698299  0.83954117  0.25359643    -0.81200
O19         O  0.45569957  0.89884943  0.49705189    -0.81100
O20         O  0.47765758  0.77327923  0.42739913    -0.81100
O21         O  0.47384427  0.96429081  0.32394565    -0.81200
Co22       Co  0.41866683  0.86711500  0.45074790     1.51500
Co23       Co  0.41819853  0.86626731  0.29845088     1.51700
Co24       Co  0.44312193  0.96133867  0.38878938     1.51600
Co25       Co  0.44677371  0.77370737  0.36160098     1.51500
O26         O  0.44060593  0.86751712  0.37505064    -1.43000
C27         C  0.46739978  0.76670041  0.47826869     1.08500
C28         C  0.46495903  0.96570038  0.27190184     1.08600
C29         C  0.48077064  0.92786948  0.48330182     1.08500
C30         C  0.48390634  0.81615369  0.26892382     1.08500
O31         O  0.48136630  0.46495385  0.95290821    -0.81100
O32         O  0.47963631  0.28617251  0.83588214    -0.81100
O33         O  0.44530516  0.29802696  0.02911369    -0.81100
O34         O  0.44057475  0.44304810  0.76785633    -0.81100
O35         O  0.46649303  0.25859638  0.94915818    -0.81200
O36         O  0.47779602  0.46755148  0.83400433    -0.81100
O37         O  0.45372901  0.33761415  0.76952562    -0.81100
O38         O  0.48615275  0.36581555  0.96476186    -0.81100
C39         C  0.49660801  0.41836280  0.97245316     1.08600
C40         C  0.47823633  0.30684064  0.78579470     1.08500
C41         C  0.46521276  0.26020029  0.00478206     1.08600
C42         C  0.46845836  0.46789219  0.78189172     1.08500
O43         O  0.40877514  0.49919050  0.83959108    -0.81100
O44         O  0.39553155  0.26558609  0.91899121    -0.81200
O45         O  0.42843920  0.42488905  0.02028762    -0.81100
O46         O  0.38963659  0.35076082  0.74965168    -0.81100
O47         O  0.40672712  0.27306824  0.80508746    -0.81200
O48         O  0.41042366  0.48732136  0.95364433    -0.81100
O49         O  0.37977029  0.41725967  0.84842473    -0.81100
O50         O  0.39070961  0.34961518  0.96712648    -0.81200
Co51       Co  0.44478237  0.47377083  0.89486427     1.51500
Co52       Co  0.43783286  0.28180412  0.87811524     1.51700
Co53       Co  0.43825872  0.35436559  0.96527446     1.51600
Co54       Co  0.41654853  0.37411984  0.81290301     1.51500
O55         O  0.43859259  0.38076438  0.88627660    -1.43000
C56         C  0.38253868  0.46970960  0.82878057     1.08500
C57         C  0.37869167  0.30100796  0.95018046     1.08600
C58         C  0.41018245  0.47009984  0.00525162     1.08500
C59         C  0.38933602  0.29422947  0.76194975     1.08500
O60         O  0.12999583  0.91821153  0.96166505    -0.81900
O61         O  0.13352605  0.82912543  0.80142770    -0.81100
O62         O  0.17253515  0.01822376  0.86412416    -0.81100
O63         O  0.16247996  0.74229803  0.89951466    -0.81100
O64         O  0.13388229  0.95407101  0.83572938    -0.81200
O65         O  0.12554114  0.80789189  0.92164313    -0.81100
O66         O  0.17365054  0.75914924  0.80471946    -0.81100
O67         O  0.17033881  0.98270552  0.97581439    -0.81100
C68         C  0.14002628  0.96763926  0.98265432     1.08600
C69         C  0.14440010  0.77627984  0.78743942     1.08500
C70         C  0.14584966  0.00725463  0.83661569     1.08600
C71         C  0.13298082  0.75455702  0.90991499     1.08500
O72         O  0.19671206  0.77657024  0.97626872    -0.81100
O73         O  0.19758457  0.96382374  0.77993580    -0.81200
O74         O  0.23241945  0.91004295  0.95499019    -0.81100
O75         O  0.23444505  0.83513788  0.83221102    -0.81100
O76         O  0.19915797  0.84724913  0.76005142    -0.81200
O77         O  0.19380102  0.88868012  0.01654217    -0.81100
O78         O  0.22511030  0.73185252  0.90397357    -0.81100
O79         O  0.23552630  0.95714476  0.84709333    -0.81200
Co80       Co  0.16149833  0.84957033  0.96218721     1.51500
Co81       Co  0.16521718  0.89758572  0.79999406     1.51700
Co82       Co  0.20175142  0.96059370  0.90939511     1.51600
Co83       Co  0.19888328  0.79738559  0.87416546     1.51500
O84         O  0.17924881  0.87984719  0.88348347    -1.43000
C85         C  0.21916798  0.73727151  0.95803164     1.08500
C86         C  0.22698896  0.97278648  0.79674441     1.08600
C87         C  0.22405109  0.89748945  0.00550257     1.08500
C88         C  0.22755498  0.83164930  0.77930131     1.08500
C89         C  0.18450687  0.36595761  0.87952507    -0.03500
C90         C  0.18377332  0.85952427  0.36994389    -0.03500
C91         C  0.43663396  0.35594321  0.35330785    -0.03500
O92         O  0.11482018  0.10323651  0.68296356    -0.81100
O93         O  0.10803625  0.17686596  0.59660426    -0.81100
O94         O  0.09103493  0.01814975  0.55236598    -0.81100
O95         O  0.06239625  0.23141172  0.71879674    -0.81100
O96         O  0.10468324  0.09881546  0.49862061    -0.81200
O97         O  0.08954024  0.16426385  0.77519996    -0.81100
O98         O  0.06874384  0.24634858  0.60755049    -0.81100
O99         O  0.09823696  0.00946187  0.67030198    -0.81100
C100        C  0.11927433  0.04691298  0.68917201     1.08600
C101        C  0.09893581  0.23192233  0.60141566     1.08500
C102        C  0.10748852  0.04148189  0.50986839     1.08600
C103        C  0.08284772  0.21925108  0.76167567     1.08500
O104        O  0.02910748  0.13929178  0.75142762    -0.81100
O105        O  0.04094615  0.08186698  0.51308165    -0.81200
O106        O  0.02833325  0.00727545  0.68743485    -0.81100
O107        O  0.00699706  0.19402013  0.57311139    -0.81100
O108        O  0.05070855  0.19592915  0.51661600    -0.81200
O109        O  0.06175415  0.04615834  0.75303958    -0.81100
O110        O  0.99474062  0.16981286  0.68591008    -0.81100
O111        O  0.01927243  0.01847523  0.57432212    -0.81200
Co112      Co  0.07102528  0.12586886  0.71059891     1.51500
Co113      Co  0.07483232  0.12473176  0.55932031     1.51700
Co114      Co  0.05816774  0.02056143  0.62212410     1.51600
Co115      Co  0.03315562  0.20271353  0.64564858     1.51500
O116        O  0.05162846  0.11471128  0.63341824    -1.43000
C117        C  0.00032290  0.15322865  0.73635709     1.08500
C118        C  0.02033048  0.04180621  0.52544899     1.08600
C119        C  0.03778740  0.01097034  0.73923515     1.08500
C120        C  0.02004773  0.21036208  0.52590387     1.08500
O121        O  0.04591226  0.72757997  0.03504529    -0.81100
O122        O  0.03511464  0.51008121  0.20124875    -0.81100
O123        O  0.00645365  0.53871201  0.07733381    -0.81100
O124        O  0.00581761  0.70507204  0.15435091    -0.81100
O125        O  0.04636063  0.47390165  0.09654701    -0.81200
O126        O  0.04984298  0.76151793  0.14214693    -0.81100
O127        O  0.99656668  0.58163912  0.19348296    -0.81100
O128        O  0.00474322  0.66174932  0.04038791    -0.81100
C129        C  0.01557733  0.71338841  0.02416360     1.08600
C130        C  0.00548155  0.52847070  0.21065832     1.08500
C131        C  0.01761526  0.48480702  0.07698012     1.08600
C132        C  0.01923014  0.75697003  0.15231600     1.08500
O133        O  0.10873495  0.69213635  0.16804178    -0.81100
O134        O  0.10932047  0.53328610  0.08900116    -0.81200
O135        O  0.06784729  0.63907089  0.98934333    -0.81100
O136        O  0.05681509  0.59497582  0.25652367    -0.81100
O137        O  0.09815621  0.57923532  0.19918997    -0.81200
O138        O  0.10787798  0.65200106  0.05210414    -0.81100
O139        O  0.06655501  0.70761803  0.22649531    -0.81100
O140        O  0.07221752  0.52676150  0.01945304    -0.81200
Co141      Co  0.07771237  0.70036107  0.10060981     1.51500
Co142      Co  0.07241018  0.53141365  0.14543743     1.51700
Co143      Co  0.03736663  0.59329766  0.03895340     1.51600
Co144      Co  0.03185156  0.64578857  0.19981674     1.51500
O145        O  0.05432650  0.61774919  0.12117081    -1.43000
C146        C  0.09767334  0.71114365  0.21629406     1.08500
C147        C  0.10167842  0.51627574  0.03833760     1.08600
C148        C  0.09816821  0.64692013  0.00067129     1.08500
C149        C  0.08529102  0.57300746  0.24762011     1.08500
O150        O  0.34618446  0.08522908  0.99331716    -0.81100
O151        O  0.25593837  0.09013980  0.23635338    -0.81100
O152        O  0.33026965  0.02295035  0.16187750    -0.81100
O153        O  0.25460245  0.02957023  0.04806970    -0.81100
O154        O  0.32166810  0.08063626  0.23868943    -0.81200
O155        O  0.30779028  0.01894638  0.05936327    -0.81100
O156        O  0.24622553  0.02818400  0.16332734    -0.81100
O157        O  0.37546930  0.05830514  0.07210637    -0.81100
C158        C  0.37097620  0.05593270  0.01672598     1.08600
C159        C  0.24599238  0.03901282  0.21669916     1.08500
C160        C  0.32873768  0.02916957  0.21608138     1.08600
C161        C  0.28004477  0.99549172  0.05129803     1.08500
O162        O  0.27477228  0.12194909  0.98924081    -0.81100
O163        O  0.32905857  0.20495716  0.19584630    -0.81200
O164        O  0.35536450  0.17839774  0.08581312    -0.81100
O165        O  0.22084614  0.14912878  0.16092051    -0.81100
O166        O  0.26272666  0.20906282  0.17831284    -0.81200
O167        O  0.31240527  0.19397396  0.03565256    -0.81100
O168        O  0.23687150  0.15846687  0.04790749    -0.81100
O169        O  0.36715403  0.13456577  0.18457312    -0.81200
Co170      Co  0.31146803  0.10775352  0.04984386     1.51500
Co171      Co  0.29230383  0.14679862  0.20813689     1.51700
Co172      Co  0.33945021  0.09816004  0.11813977     1.51600
Co173      Co  0.24264871  0.09302683  0.10558758     1.51500
O174        O  0.29011396  0.12235720  0.12504982    -1.43000
C175        C  0.25090056  0.15978666  0.99952023     1.08500
C176        C  0.35848972  0.18671821  0.20505252     1.08600
C177        C  0.33852597  0.21373177  0.05483244     1.08500
C178        C  0.23325602  0.19440860  0.18643218     1.08500
C179        C  0.30345944  0.60443476  0.12827994    -0.03500
C180        C  0.06094470  0.61562331  0.64005002    -0.03500
O181        O  0.22249219  0.34325310  0.50091274    -0.81100
O182        O  0.20344381  0.39098782  0.23178092    -0.81100
O183        O  0.19248825  0.24108683  0.34536531    -0.81100
O184        O  0.19150644  0.49357907  0.39637626    -0.81100
O185        O  0.21997793  0.32474300  0.32955693    -0.81200
O186        O  0.22550350  0.41477011  0.40070947    -0.81100
O187        O  0.18473828  0.46708863  0.28856569    -0.81100
O188        O  0.19493521  0.26327005  0.46218833    -0.81100
C189        C  0.21782824  0.28547382  0.49692620     1.08600
C190        C  0.20327327  0.44773592  0.24547119     1.08500
C191        C  0.21763867  0.26811518  0.32592101     1.08600
C192        C  0.22049425  0.47162489  0.40113535     1.08500
O193        O  0.17313371  0.44737789  0.48849934    -0.81100
O194        O  0.15817909  0.28970177  0.26209937    -0.81200
O195        O  0.12144810  0.29877425  0.44630593    -0.81100
O196        O  0.11342789  0.41657052  0.33249581    -0.81100
O197        O  0.14048269  0.39917798  0.25637574    -0.81200
O198        O  0.15801861  0.34329370  0.50029781    -0.81100
O199        O  0.12797993  0.45536862  0.43474006    -0.81100
O200        O  0.12378632  0.27021595  0.33328683    -0.81200
Co201      Co  0.19164114  0.37200618  0.44507438     1.51500
Co202      Co  0.18045136  0.36450383  0.29799290     1.51700
Co203      Co  0.15761681  0.27428945  0.39603252     1.51600
Co204      Co  0.15302904  0.45342891  0.36283165     1.51500
O205        O  0.16377435  0.36523193  0.37709057    -1.43000
C206        C  0.14287050  0.46596569  0.48173447     1.08500
C207        C  0.13113941  0.26586224  0.28026717     1.08600
C208        C  0.12958599  0.32251040  0.49304238     1.08500
C209        C  0.11482427  0.41878336  0.27990256     1.08500
O210        O  0.28436188  0.65717009  0.74104135    -0.81100
O211        O  0.28586881  0.57380189  0.50276113    -0.81100
O212        O  0.26622660  0.70350577  0.56137338    -0.81100
O213        O  0.26508436  0.51451182  0.67870512    -0.81100
O214        O  0.30375803  0.67681108  0.49816326    -0.81200
O215        O  0.30051807  0.54637903  0.74453361    -0.81100
O216        O  0.25715246  0.52572642  0.56616148    -0.81100
O217        O  0.25751114  0.69590553  0.66963641    -0.81100
C218        C  0.26090111  0.68858553  0.72193712     1.08600
C219        C  0.25994409  0.54847773  0.51744938     1.08500
C220        C  0.27594748  0.70356725  0.51005305     1.08600
C221        C  0.27438572  0.51570205  0.73076674     1.08500
O222        O  0.35924708  0.57623710  0.66534613    -0.81100
O223        O  0.36237155  0.64290799  0.57853952    -0.81200
O224        O  0.33102559  0.72382335  0.69769967    -0.81100
O225        O  0.33009249  0.49563528  0.54321406    -0.81100
O226        O  0.34871362  0.56967915  0.48524778    -0.81200
O227        O  0.34814889  0.65008961  0.75845892    -0.81100
O228        O  0.33418884  0.48970031  0.66614972    -0.81100
O229        O  0.33545454  0.72882134  0.57777458    -0.81200
Co230      Co  0.32124705  0.61795316  0.69796142     1.51500
Co231      Co  0.32338180  0.60391579  0.54639188     1.51700
Co232      Co  0.29737919  0.70574287  0.62672777     1.51600
Co233      Co  0.29664325  0.51418118  0.61375793     1.51500
O234        O  0.30002751  0.61052000  0.62128659    -1.43000
C235        C  0.35853923  0.52223291  0.68089423     1.08500
C236        C  0.36061010  0.69746122  0.56395675     1.08600
C237        C  0.34904441  0.70584535  0.74220183     1.08500
C238        C  0.34788326  0.51314347  0.49888639     1.08500
C239        C  0.30546029  0.12006050  0.63516960    -0.03500
C240        C  0.04673708  0.10822740  0.12969611    -0.03500
C241        C  0.08196016  0.19641360  0.26465015    -0.14300
C242        C  0.10796363  0.23089343  0.24102768     0.07800
C243        C  0.11056288  0.23176110  0.18062042    -0.14300
C244        C  0.08913029  0.19628202  0.14572437    -0.14300
C245        C  0.06587272  0.15507037  0.16983411     0.07800
C246        C  0.06103167  0.16042657  0.22992243    -0.14300
H247        H  0.07776569  0.19672519  0.31068806     0.11800
H248        H  0.12927777  0.25950370  0.16027171     0.11800
H249        H  0.09229012  0.19781041  0.09944747     0.11800
H250        H  0.04080000  0.13799027  0.25114344     0.11800
C251        C  0.22549433  0.19632088  0.56507288    -0.14300
C252        C  0.23922735  0.24292854  0.53164193     0.07800
C253        C  0.27394970  0.24860771  0.53123570    -0.14300
C254        C  0.29449497  0.20787332  0.56229860    -0.14300
C255        C  0.28126661  0.16053451  0.59668701     0.07800
C256        C  0.24595398  0.15711683  0.59827984    -0.14300
H257        H  0.19874151  0.19139404  0.56698169     0.11800
H258        H  0.28533316  0.28422574  0.50595874     0.11800
H259        H  0.32114696  0.21407100  0.56027861     0.11800
H260        H  0.23332599  0.12522886  0.62555078     0.11800
C261        C  0.24507041  0.50988148  0.42651972    -0.17400
C262        C  0.23536656  0.53886172  0.47441044    -0.32600
H263        H  0.27120831  0.50040580  0.41803612     0.11600
H264        H  0.20948313  0.54188116  0.48721806     0.12200
C265        C  0.06953125  0.53252363  0.56312477    -0.14300
C266        C  0.08411227  0.57531947  0.60092395     0.07800
C267        C  0.11932024  0.58083911  0.59859596    -0.14300
C268        C  0.13881968  0.54288246  0.56299054    -0.14300
C269        C  0.12381911  0.50012582  0.52646228     0.07800
C270        C  0.08892423  0.49559978  0.52703985    -0.14300
H271        H  0.04276715  0.52746274  0.56181806     0.11800
H272        H  0.13234601  0.61541882  0.62267935     0.11800
H273        H  0.16548505  0.54910173  0.56204989     0.11800
H274        H  0.07641149  0.46371079  0.49869687     0.11800
C275        C  0.26734089  0.57514088  0.21888650    -0.14300
C276        C  0.27849237  0.56284382  0.16223810     0.07800
C277        C  0.26229870  0.51458658  0.13269783    -0.14300
C278        C  0.23766048  0.47873665  0.15886077    -0.14300
C279        C  0.22689896  0.49063778  0.21533009     0.07800
C280        C  0.24201567  0.53985115  0.24473882    -0.14300
H281        H  0.27751157  0.61288949  0.24312583     0.11800
H282        H  0.26891652  0.50437548  0.08855632     0.11800
H283        H  0.22690356  0.44145356  0.13456876     0.11800
H284        H  0.23477573  0.55031085  0.28853096     0.11800
C285        C  0.21784866  0.21396147  0.23855176    -0.17400
C286        C  0.23588571  0.23931099  0.28079427    -0.32600
H287        H  0.19193863  0.20225614  0.24428764     0.11600
H288        H  0.26200333  0.25027871  0.27552560     0.12200
C289        C  0.09672283  0.46637631  0.25199345    -0.17400
C290        C  0.09455597  0.52016368  0.27999777    -0.32600
H291        H  0.09262473  0.46259021  0.20586635     0.11600
H292        H  0.09983687  0.52515636  0.32576252     0.12200
C293        C  0.10880290  0.31601307  0.54217171    -0.17400
C294        C  0.12100015  0.27930305  0.58344218    -0.32600
H295        H  0.08216215  0.32049443  0.53449492     0.11600
H296        H  0.14759903  0.27003302  0.58664609     0.12200
C297        C  0.39629934  0.26565197  0.33632502    -0.14300
C298        C  0.41508347  0.31385457  0.31246450     0.07800
C299        C  0.41363421  0.31984472  0.25160104    -0.14300
C300        C  0.39677279  0.27698135  0.21667974    -0.14300
C301        C  0.38074892  0.22638333  0.24088250     0.07800
C302        C  0.38016926  0.22213414  0.30129114    -0.14300
H303        H  0.39540067  0.26009214  0.38264097     0.11800
H304        H  0.42511816  0.35793914  0.23024104     0.11800
H305        H  0.39577675  0.28399884  0.17051088     0.11800
H306        H  0.36648771  0.18569589  0.32159167     0.11800
C307        C  0.45810775  0.46610320  0.32618159    -0.14300
C308        C  0.45886844  0.40174573  0.31819924     0.07800
C309        C  0.97709389  0.38934266  0.29686344    -0.14300
C310        C  0.99324268  0.42652967  0.25652039    -0.14300
C311        C  0.98403258  0.48812470  0.24794863     0.07800
C312        C  0.47870529  0.50526784  0.29445564    -0.14300
H313        H  0.44233854  0.48736547  0.35794204     0.11800
H314        H  0.98633078  0.34302495  0.30165797     0.11800
H315        H  0.01378498  0.40688995  0.23264077     0.11800
H316        H  0.47704855  0.55403674  0.30205425     0.11800
C317        C  0.46843020  0.25292120  0.37611089    -0.14300
C318        C  0.46233847  0.31556783  0.38861066     0.07800
C319        C  0.48299559  0.34174123  0.43159235    -0.14300
C320        C  0.01256972  0.29440886  0.44961548    -0.14300
C321        C  0.99912083  0.24853766  0.48473751     0.07800
C322        C  0.49016606  0.21702962  0.40963303    -0.14300
H323        H  0.45686148  0.23043477  0.33988374     0.11800
H324        H  0.00375571  0.37089109  0.39437779     0.11800
H325        H  0.03918284  0.30151656  0.44954944     0.11800
H326        H  0.49272149  0.16893945  0.39935335     0.11800
C327        C  0.38843814  0.42307631  0.48835073    -0.14300
C328        C  0.36745744  0.46755955  0.46306742     0.07800
C329        C  0.36682271  0.47048425  0.40245408    -0.14300
C330        C  0.38729342  0.43208721  0.36846711    -0.14300
C331        C  0.41098224  0.39141501  0.39335897     0.07800
C332        C  0.40964502  0.38566411  0.45435976    -0.14300
H333        H  0.38928594  0.41851236  0.53479472     0.11800
H334        H  0.35055339  0.50316055  0.38110290     0.11800
H335        H  0.38601987  0.43677612  0.32206453     0.11800
H336        H  0.42494233  0.35251001  0.47675876     0.11800
C337        C  0.12567141  0.81394559  0.34068758    -0.14300
C338        C  0.16070082  0.81427576  0.33558198     0.07800
C339        C  0.17468592  0.77158124  0.29623729    -0.14300
C340        C  0.15465184  0.73761345  0.25791688    -0.14300
C341        C  0.11978470  0.74222885  0.25977853     0.07800
C342        C  0.10573812  0.77884540  0.30348934    -0.14300
H343        H  0.11310801  0.84150838  0.37258772     0.11800
H344        H  0.20144486  0.76789601  0.29226259     0.11800
H345        H  0.16650550  0.70855267  0.22617087     0.11800
H346        H  0.07901016  0.78201574  0.30802073     0.11800
C347        C  0.19722718  0.90280879  0.26767931    -0.14300
C348        C  0.20242571  0.90294827  0.32804472     0.07800
C349        C  0.22270058  0.94986897  0.35095222    -0.14300
C350        C  0.23689127  0.99421602  0.31537636    -0.14300
C351        C  0.23188573  0.99233153  0.25554514     0.07800
C352        C  0.21228135  0.94565052  0.23227947    -0.14300
H353        H  0.18052574  0.87172147  0.24653658     0.11800
H354        H  0.22684285  0.95296202  0.39701250     0.11800
H355        H  0.25176322  0.02989985  0.33468211     0.11800
H356        H  0.20732961  0.94353355  0.18639832     0.11800
C357        C  0.16691326  0.91035148  0.46937510    -0.14300
C358        C  0.16297525  0.90521352  0.40889823     0.07800
C359        C  0.14148394  0.94915761  0.38240175    -0.14300
C360        C  0.12491169  0.99508898  0.41425571    -0.14300
C361        C  0.12847388  0.99859087  0.47433252     0.07800
C362        C  0.14945217  0.95516291  0.50134871    -0.14300
H363        H  0.18372185  0.88055170  0.49273090     0.11800
H364        H  0.13779731  0.94827214  0.33615457     0.11800
H365        H  0.10847605  0.02678061  0.39197989     0.11800
H366        H  0.15260597  0.95623821  0.54772440     0.11800
C367        C  0.26592541  0.77694053  0.42550156    -0.14300
C368        C  0.25375961  0.73686337  0.46743823     0.07800
C369        C  0.21899589  0.73617666  0.47572275    -0.14300
C370        C  0.19728568  0.77507142  0.44472858    -0.14300
C371        C  0.20919473  0.81798580  0.40471015     0.07800
C372        C  0.24414964  0.81647641  0.39460913    -0.14300
H373        H  0.29236927  0.77932288  0.41773374     0.11800
H374        H  0.20847011  0.70594686  0.50755135     0.11800
H375        H  0.17084863  0.77237354  0.45282743     0.11800
H376        H  0.25522406  0.84541281  0.36253358     0.11800
C377        C  0.14622348  0.34523995  0.78760519    -0.14300
C378        C  0.15422274  0.33658058  0.84652606     0.07800
C379        C  0.13294709  0.29770383  0.87810428    -0.14300
C380        C  0.10803783  0.26329613  0.85124914    -0.14300
C381        C  0.10198833  0.26822983  0.79194721     0.07800
C382        C  0.12053062  0.31135259  0.76077435    -0.14300
H383        H  0.16004301  0.37686231  0.76158910     0.11800
H384        H  0.13721580  0.29071756  0.92375063     0.11800
H385        H  0.09446336  0.23043526  0.87657780     0.11800
H386        H  0.11663727  0.31601112  0.71477195     0.11800
C387        C  0.16562996  0.39725062  0.98547635    -0.14300
C388        C  0.16632232  0.40782469  0.92516039     0.07800
C389        C  0.14596459  0.45638459  0.90444232    -0.14300
C390        C  0.12595311  0.49185104  0.94119459    -0.14300
C391        C  0.12578795  0.48170929  0.00088071     0.07800
C392        C  0.14628423  0.43442938  0.02267011    -0.14300
H393        H  0.17863611  0.35891504  0.00447452     0.11800
H394        H  0.14482935  0.46580900  0.85867056     0.11800
H395        H  0.11017673  0.52713131  0.92260885     0.11800
H396        H  0.14601397  0.42407003  0.06828074     0.11800
C397        C  0.20466283  0.25079251  0.88372853    -0.14300
C398        C  0.20633535  0.31184622  0.90540513     0.07800
C399        C  0.22983499  0.32160571  0.94980976    -0.14300
C400        C  0.24588221  0.27208331  0.97779596    -0.14300
C401        C  0.24100181  0.21109721  0.95989783     0.07800
C402        C  0.22116142  0.20142534  0.91104112    -0.14300
H403        H  0.18980505  0.24006940  0.84613522     0.11800
H404        H  0.23418751  0.36745581  0.96550783     0.11800
H405        H  0.26123428  0.28135946  0.01526102     0.11800
H406        H  0.21700558  0.15537410  0.89563094     0.11800
C407        C  0.22343785  0.38225103  0.79108489    -0.14300
C408        C  0.20885709  0.40595526  0.84174750     0.07800
C409        C  0.22000397  0.46507303  0.85890437    -0.14300
C410        C  0.24233499  0.49976509  0.82517842    -0.14300
C411        C  0.25473400  0.47708929  0.77276012     0.07800
C412        C  0.24499227  0.41748620  0.75674930    -0.14300
H413        H  0.21749718  0.33641968  0.77706804     0.11800
H414        H  0.21181860  0.48515185  0.89899862     0.11800
H415        H  0.24908815  0.54516366  0.83937817     0.11800
H416        H  0.25412563  0.39785023  0.71695685     0.11800
C417        C  0.12038691  0.66201786  0.95476064    -0.17400
C418        C  0.10985397  0.70600069  0.91898206    -0.32600
H419        H  0.14683434  0.65487649  0.96302800     0.11600
H420        H  0.08352445  0.71744510  0.91534163     0.12200
C421        C  0.13821666  0.04704833  0.78810915    -0.17400
C422        C  0.14025980  0.02349497  0.73460307    -0.32600
H423        H  0.13169453  0.09406958  0.79595630     0.11600
H424        H  0.14729466  0.97588971  0.72898376     0.12200
C425        C  0.09823769  0.76080690  0.71454937    -0.14300
C426        C  0.12275597  0.73554358  0.75138255     0.07800
C427        C  0.12578262  0.67167803  0.75356724    -0.14300
C428        C  0.10517792  0.63436566  0.71945043    -0.14300
C429        C  0.08202554  0.65933413  0.67922029     0.07800
C430        C  0.07836679  0.72361452  0.67897972    -0.14300
H431        H  0.09471835  0.80987549  0.71248421     0.11800
H432        H  0.14380773  0.65046330  0.78227233     0.11800
H433        H  0.10812055  0.58527773  0.72295565     0.11800
H434        H  0.06002680  0.74590556  0.65184867     0.11800
C435        C  0.08237258  0.99609039  0.01474112    -0.14300
C436        C  0.11695392  0.00360442  0.01977282     0.07800
C437        C  0.12903368  0.04053753  0.06438849    -0.14300
C438        C  0.10706696  0.07082108  0.10177496    -0.14300
C439        C  0.07201252  0.06879058  0.09360961     0.07800
C440        C  0.06041465  0.02735267  0.05133931    -0.14300
H441        H  0.07215927  0.96612412  0.98206336     0.11800
H442        H  0.15557048  0.04441200  0.07168744     0.11800
H443        H  0.11822148  0.09499505  0.13738314     0.11800
H444        H  0.03405611  0.02068672  0.04485705     0.11800
C445        C  0.24609829  0.78981477  0.74517491    -0.17400
C446        C  0.24440251  0.73055212  0.75908791    -0.32600
H447        H  0.25689473  0.80543739  0.70500907     0.11600
H448        H  0.23383103  0.71466185  0.79908540     0.12200
C449        C  0.26091492  0.65400688  0.98285079    -0.14300
C450        C  0.23844769  0.69963832  0.00091443     0.07800
C451        C  0.23585274  0.71097062  0.06043885    -0.14300
C452        C  0.25609224  0.67940197  0.10031539    -0.14300
C453        C  0.28047912  0.63653215  0.08227595     0.07800
C454        C  0.28116005  0.62242312  0.02270510    -0.14300
H455        H  0.26305820  0.64279397  0.93755831     0.11800
H456        H  0.21861652  0.74526688  0.07631904     0.11800
H457        H  0.25352805  0.69002936  0.14566528     0.11800
H458        H  0.29713167  0.58665335  0.00615499     0.11800
C459        C  0.24674030  0.99725420  0.69749496    -0.14300
C460        C  0.24976733  0.00519254  0.75738356     0.07800
C461        C  0.27202091  0.04882292  0.77828009    -0.14300
C462        C  0.28974557  0.08581933  0.74012432    -0.14300
C463        C  0.28582995  0.08037270  0.67938996     0.07800
C464        C  0.26506961  0.03303993  0.65931042    -0.14300
H465        H  0.22987679  0.96349576  0.68009927     0.11800
H466        H  0.27485174  0.05589988  0.82425202     0.11800
H467        H  0.30651984  0.11832638  0.75930390     0.11800
H468        H  0.26226944  0.02507725  0.61347223     0.11800
C469        C  0.24824848  0.90419980  0.05234329    -0.17400
C470        C  0.27728650  0.93009693  0.03982829    -0.32600
H471        H  0.23718959  0.91445128  0.09389335     0.11600
H472        H  0.29080861  0.91472843  0.00200271     0.12200
C473        C  0.50263052  0.28977547  0.74364518    -0.17400
C474        C  0.97614520  0.16427746  0.78091954    -0.32600
H475        H  0.52849730  0.28801308  0.75693472     0.11600
H476        H  0.95088126  0.17243790  0.76565262     0.12200
C477        C  0.34893091  0.27967317  0.97682283    -0.17400
C478        C  0.35142757  0.27040532  0.03371436    -0.32600
H479        H  0.33211766  0.25260133  0.95043855     0.11600
H480        H  0.37108890  0.29183165  0.05886381     0.12200
C481        C  0.38317134  0.20124543  0.70112385    -0.14300
C482        C  0.36865411  0.25186418  0.72809510     0.07800
C483        C  0.33406491  0.25975774  0.72531984    -0.14300
C484        C  0.31424025  0.21684844  0.69668643    -0.14300
C485        C  0.32849720  0.16580725  0.66802654     0.07800
C486        C  0.36363348  0.15981413  0.67023716    -0.14300
H487        H  0.40987025  0.19429812  0.70313587     0.11800
H488        H  0.32229817  0.29822760  0.74671083     0.11800
H489        H  0.28752067  0.22352919  0.69676287     0.11800
H490        H  0.37673248  0.12333161  0.64872015     0.11800
C491        C  0.49188748  0.22305811  0.09821982    -0.14300
C492        C  0.49084128  0.22386224  0.03785340     0.07800
C493        C  0.99351546  0.16743507  0.00064926    -0.14300
C494        C  0.02164019  0.14606124  0.03100470    -0.14300
C495        C  0.02293166  0.14839269  0.09186898     0.07800
C496        C  0.99696923  0.18064830  0.11990704    -0.14300
H497        H  0.47350391  0.24823086  0.12280910     0.11800
H498        H  0.99367329  0.16588502  0.95401082     0.11800
H499        H  0.04187732  0.12718979  0.00620273     0.11800
H500        H  0.51545709  0.18752454  0.17421641     0.11800
C501        C  0.37813846  0.50695628  0.73121306    -0.17400
C502        C  0.36326801  0.48362007  0.77763246    -0.32600
H503        H  0.40307734  0.52534266  0.73403642     0.11600
H504        H  0.33836257  0.46515483  0.77471303     0.12200
C505        C  0.37989796  0.56559020  0.03355221    -0.14300
C506        C  0.38684618  0.50362383  0.04476709     0.07800
C507        C  0.36741201  0.47410062  0.08636936    -0.14300
C508        C  0.34068693  0.50517200  0.11360964    -0.14300
C509        C  0.33238188  0.56665332  0.09960491     0.07800
C510        C  0.35384808  0.59655609  0.06104344    -0.14300
H511        H  0.39430043  0.59015544  0.00198738     0.11800
H512        H  0.37195241  0.42636319  0.09608488     0.11800
H513        H  0.32669718  0.48061783  0.14555976     0.11800
H514        H  0.34967604  0.64417041  0.05043726     0.11800
C515        C  0.02516932  0.47609022  0.72492009    -0.14300
C516        C  0.49012659  0.50152086  0.74030977     0.07800
C517        C  0.48394974  0.50483900  0.68071278    -0.14300
C518        C  0.01847278  0.60302200  0.72217309    -0.14300
C519        C  0.04094675  0.57512816  0.68331578     0.07800
C520        C  0.04521865  0.51091031  0.68834422    -0.14300
H521        H  0.02844994  0.42692689  0.72538878     0.11800
H522        H  0.46289682  0.48129422  0.66205765     0.11800
H523        H  0.49953290  0.54049207  0.59890088     0.11800
H524        H  0.06393504  0.48643373  0.66424182     0.11800
C525        C  0.52173466  0.42612636  0.01565902    -0.17400
C526        C  0.00273395  0.44120941  0.03811335    -0.32600
H527        H  0.54667485  0.43649936  0.00166793     0.11600
H528        H  0.98208169  0.41416553  0.05334041     0.12200
C529        C  0.34004257  0.97935001  0.25340666    -0.17400
C530        C  0.34904209  0.99152184  0.30799114    -0.32600
H531        H  0.34802316  0.93700190  0.23295417     0.11600
H532        H  0.34344242  0.03575538  0.32710307     0.12200
C533        C  0.00119983  0.80934622  0.17420958    -0.17400
C534        C  0.51098657  0.81249034  0.22850119    -0.32600
H535        H  0.97648681  0.81620762  0.15600015     0.11600
H536        H  0.53570221  0.80434619  0.24630132     0.12200
C537        C  0.32700177  0.71439835  0.14684645    -0.14300
C538        C  0.32277136  0.65314687  0.16565269     0.07800
C539        C  0.34296833  0.63446449  0.21278599    -0.14300
C540        C  0.36585759  0.67451017  0.23950669    -0.14300
C541        C  0.36991100  0.73502092  0.21995302     0.07800
C542        C  0.34967926  0.75425034  0.17364607    -0.14300
H543        H  0.31422823  0.73166650  0.10910488     0.11800
H544        H  0.34184282  0.58772630  0.22779750     0.11800
H545        H  0.38064857  0.65770964  0.27537281     0.11800
H546        H  0.35179335  0.80025772  0.15704923     0.11800
C547        C  0.48038046  0.01983572  0.17820384    -0.14300
C548        C  0.48959428  0.99305074  0.23068594     0.07800
C549        C  0.00759862  0.00344571  0.24684366    -0.14300
C550        C  0.03201356  0.03300787  0.21394993    -0.14300
C551        C  0.02342130  0.06158910  0.16146969     0.07800
C552        C  0.99207301  0.04477839  0.13719075    -0.14300
H553        H  0.45492061  0.01701712  0.16299644     0.11800
H554        H  0.01423302  0.98679587  0.28935590     0.11800
H555        H  0.05686614  0.03727528  0.23159938     0.11800
H556        H  0.98494928  0.05804946  0.09397115     0.11800
C557        C  0.36477408  0.74894298  0.47284447    -0.17400
C558        C  0.37979823  0.71637249  0.51476581    -0.32600
H559        H  0.33998438  0.76779984  0.47872018     0.11600
H560        H  0.40470491  0.69766019  0.50950552     0.12200
C561        C  0.51461992  0.69259097  0.49370434    -0.14300
C562        C  0.48824845  0.72678527  0.51764871     0.07800
C563        C  0.03005307  0.71540477  0.50958569    -0.14300
C564        C  0.05042829  0.68654735  0.55157122    -0.14300
C565        C  0.03693287  0.65116786  0.59677653     0.07800
C566        C  0.00166121  0.64609264  0.59675123    -0.14300
H567        H  0.51922240  0.69390281  0.44779765     0.11800
H568        H  0.04167226  0.74189012  0.47601590     0.11800
H569        H  0.07713036  0.69126631  0.54833937     0.11800
H570        H  0.55414643  0.63002000  0.50430782     0.11800
C571        C  0.35181910  0.03937284  0.50703523    -0.14300
C572        C  0.36994434  0.99289524  0.53515906     0.07800
C573        C  0.36578613  0.98612507  0.59475139    -0.14300
C574        C  0.34506328  0.02631918  0.62571269    -0.14300
C575        C  0.32693492  0.07423142  0.59819263     0.07800
C576        C  0.33015087  0.07833053  0.53758134    -0.14300
H577        H  0.35385657  0.04477866  0.46080823     0.11800
H578        H  0.37919651  0.95048680  0.61773172     0.11800
H579        H  0.34371716  0.02064323  0.67196028     0.11800
H580        H  0.31642463  0.11173184  0.51277011     0.11800
C581        C  0.50357793  0.94551092  0.52743697    -0.17400
C582        C  0.00001841  0.01752342  0.48084155    -0.32600
H583        H  0.53003316  0.94015251  0.51916280     0.11600
H584        H  0.98429089  0.04871399  0.45615560     0.12200
C585        C  0.42557550  0.91963580  0.97644332    -0.14300
C586        C  0.42085994  0.91514249  0.91607744     0.07800
C587        C  0.40143563  0.96173962  0.88952478    -0.14300
C588        C  0.38665663  0.00893946  0.92152601    -0.14300
C589        C  0.39109805  0.01232154  0.98145819     0.07800
C590        C  0.41087618  0.96714938  0.00836385    -0.14300
H591        H  0.44146986  0.88813035  0.99966814     0.11800
H592        H  0.39797931  0.96175261  0.84320084     0.11800
H593        H  0.37132793  0.04241959  0.89925218     0.11800
H594        H  0.41459486  0.96777710  0.05462449     0.11800
C595        C  0.48428638  0.95436079  0.87346883    -0.14300
C596        C  0.46358748  0.91325259  0.84219982     0.07800
C597        C  0.46369885  0.91853451  0.78159260    -0.14300
C598        C  0.01414029  0.91314396  0.77519220    -0.14300
C599        C  0.01877497  0.97619274  0.78240834     0.07800
C600        C  0.50377332  0.99828241  0.84607139    -0.14300
H601        H  0.48519756  0.95260585  0.92006157     0.11800
H602        H  0.98663771  0.83378972  0.79932313     0.11800
H603        H  0.02904689  0.88790862  0.74439596     0.11800
H604        H  0.51903251  0.02852000  0.87182937     0.11800
C605        C  0.42806272  0.78482922  0.79975600    -0.14300
C606        C  0.41579244  0.82944546  0.83871541     0.07800
C607        C  0.38050312  0.83173660  0.84460406    -0.14300
C608        C  0.35906678  0.79378649  0.81208473    -0.14300
C609        C  0.37167211  0.74988035  0.77365036     0.07800
C610        C  0.40655039  0.74584687  0.76825391    -0.14300
H611        H  0.45464758  0.77940521  0.79432242     0.11800
H612        H  0.36877735  0.86158437  0.87557224     0.11800
H613        H  0.33246390  0.79743511  0.81853771     0.11800
H614        H  0.41730017  0.71200840  0.73964523     0.11800
C615        C  0.46775072  0.74405030  0.98899992    -0.14300
C616        C  0.99399507  0.75544227  0.98829328     0.07800
C617        C  0.99878855  0.81895654  0.98863671    -0.14300
C618        C  0.49774004  0.81966832  0.90835946    -0.14300
C619        C  0.46258813  0.82299564  0.91325352     0.07800
C620        C  0.44804154  0.78183159  0.95264817    -0.14300
H621        H  0.45557989  0.71460030  0.01962297     0.11800
H622        H  0.01741053  0.83874375  0.01677293     0.11800
H623        H  0.98438739  0.90643723  0.95498215     0.11800
H624        H  0.42124956  0.78056664  0.95671414     0.11800
C625        C  0.93716962  0.88030689  0.87040037    -0.03500
O626        O  0.90962242  0.89753680  0.48985338    -0.81100
O627        O  0.89152161  0.78188510  0.28968712    -0.81100
O628        O  0.87799298  0.97853018  0.31497890    -0.81100
O629        O  0.91527549  0.73895262  0.39202385    -0.81100
O630        O  0.86209109  0.88667841  0.29017678    -0.81200
O631        O  0.88352594  0.80416240  0.43144812    -0.81100
O632        O  0.93966741  0.73728060  0.29548053    -0.81100
O633        O  0.87909400  0.95036383  0.42824904    -0.81100
C634        C  0.88570750  0.93512322  0.47957713     1.08600
C635        C  0.91002917  0.73898765  0.27434074     1.08500
C636        C  0.85598149  0.94200170  0.29709007     1.08600
C637        C  0.88729487  0.75254263  0.41096431     1.08500
O638        O  0.94845041  0.77902285  0.48805799    -0.81100
O639        O  0.92260865  0.94481185  0.24241141    -0.81200
O640        O  0.94866872  0.96520234  0.43026496    -0.81100
O641        O  0.98522643  0.83857875  0.32199331    -0.81100
O642        O  0.95165774  0.83633285  0.24588701    -0.81200
O643        O  0.97215760  0.87465024  0.43068954    -0.81100
O644        O  0.97996758  0.74536664  0.41449583    -0.81100
O645        O  0.95067840  0.97900120  0.31658291    -0.81200
Co646      Co  0.92811159  0.83715051  0.43010042     1.51500
Co647      Co  0.90683901  0.86227534  0.27092068     1.51700
Co648      Co  0.91457742  0.96298202  0.37113553     1.51600
Co649      Co  0.94959203  0.79656818  0.36392375     1.51500
O650        O  0.91836862  0.87253164  0.35359769    -1.43000
C651        C  0.97337326  0.74623847  0.46945093     1.08500
C652        C  0.94803762  0.97191094  0.26299655     1.08600
C653        C  0.97311393  0.93085249  0.44078983     1.08500
C654        C  0.98069592  0.83830163  0.26773983     1.08500
O655        O  0.96128742  0.46805605  0.93043009    -0.81100
O656        O  0.96679600  0.27516154  0.88401940    -0.81100
O657        O  0.94906116  0.29346146  0.00702891    -0.81100
O658        O  0.97766902  0.40880121  0.79038984    -0.81100
O659        O  0.92675372  0.21997839  0.95216870    -0.81200
O660        O  0.95189075  0.49283807  0.81666117    -0.81100
O661        O  0.96329108  0.28492646  0.79111753    -0.81100
O662        O  0.97982821  0.37280061  0.93147690    -0.81100
C663        C  0.98374166  0.42860034  0.94198440     1.08600
C664        C  0.97378933  0.25666173  0.83487454     1.08500
C665        C  0.94476221  0.23674982  0.99645273     1.08600
C666        C  0.97607019  0.46653129  0.79163212     1.08500
O667        O  0.88314641  0.46443501  0.82945960    -0.81100
O668        O  0.87062541  0.29275817  0.89646210    -0.81200
O669        O  0.92539003  0.41433994  0.00217354    -0.81100
O670        O  0.89700974  0.30951233  0.76262303    -0.81100
O671        O  0.90654541  0.23508075  0.82551136    -0.81200
O672        O  0.88952333  0.45366096  0.94262274    -0.81100
O673        O  0.91062789  0.43176411  0.75273474    -0.81100
O674        O  0.88829152  0.33029088  0.97354287    -0.81200
Co675      Co  0.92112507  0.46436857  0.87946029     1.51500
Co676      Co  0.91924100  0.28801641  0.89398632     1.51700
Co677      Co  0.93445116  0.34591734  0.94515255     1.51600
Co678      Co  0.93660207  0.35989091  0.78028647     1.51500
O679        O  0.92153825  0.37363241  0.86363580    -1.43000
C680        C  0.88861168  0.46488566  0.77639131     1.08500
C681        C  0.86405966  0.31278855  0.94440716     1.08600
C682        C  0.90044357  0.44879687  0.99319892     1.08500
C683        C  0.89299967  0.25472155  0.77889533     1.08500
O684        O  0.63741723  0.89381887  0.96226851    -0.81900
O685        O  0.63455376  0.80834796  0.80286819    -0.81100
O686        O  0.67413018  0.99237926  0.87005337    -0.81100
O687        O  0.67717254  0.71087326  0.89130628    -0.81100
O688        O  0.63403600  0.92812292  0.84900134    -0.81200
O689        O  0.63757039  0.77534486  0.91717204    -0.81100
O690        O  0.67626568  0.74668544  0.78425352    -0.81100
O691        O  0.67866336  0.95593448  0.97617895    -0.81100
C692        C  0.64811550  0.94286822  0.98432750     1.08600
C693        C  0.64538800  0.76025060  0.77849425     1.08500
C694        C  0.64402824  0.98210898  0.85689690     1.08600
C695        C  0.64700717  0.72231724  0.90289691     1.08500
O696        O  0.70048735  0.75176021  0.97894042    -0.81100
O697        O  0.69333401  0.95241957  0.78086013    -0.81200
O698        O  0.74078509  0.88599865  0.94511945    -0.81100
O699        O  0.73849214  0.81480244  0.80446908    -0.81100
O700        O  0.69678372  0.83992564  0.74675566    -0.81200
O701        O  0.70423988  0.86540448  0.01142223    -0.81100
O702        O  0.74097345  0.76474514  0.91766988    -0.81100
O703        O  0.73672889  0.93639169  0.83600256    -0.81200
Co704      Co  0.66988780  0.82392628  0.96034126     1.51500
Co705      Co  0.66492703  0.87940766  0.80219344     1.51700
Co706      Co  0.70751509  0.93520749  0.90491427     1.51600
Co707      Co  0.70804870  0.76714744  0.85170705     1.51500
O708        O  0.68756443  0.85123044  0.87959561    -1.43000
C709        C  0.73102436  0.74496835  0.96621439     1.08500
C710        C  0.72428074  0.95866162  0.79016995     1.08600
C711        C  0.73375724  0.87988014  0.99722858     1.08500
C712        C  0.72775398  0.83207413  0.75575677     1.08500
C713        C  0.68574213  0.38546908  0.86373016    -0.03500
C714        C  0.68318603  0.88860049  0.36682619    -0.03500
C715        C  0.93175862  0.36699204  0.37550443    -0.03500
O716        O  0.58679659  0.10288877  0.75447238    -0.81100
O717        O  0.58755805  0.14199858  0.50742276    -0.81100
O718        O  0.61059775  0.02923111  0.58283053    -0.81100
O719        O  0.60963544  0.21660267  0.67490198    -0.81100
O720        O  0.56943820  0.04126365  0.52003562    -0.81200
O721        O  0.56966708  0.20900504  0.73884577    -0.81100
O722        O  0.62069635  0.18650822  0.56670516    -0.81100
O723        O  0.62026918  0.05846501  0.69512091    -0.81100
C724        C  0.61442161  0.07906233  0.74412708     1.08600
C725        C  0.61597017  0.16005922  0.52007460     1.08500
C726        C  0.59864875  0.02090476  0.53270622     1.08600
C727        C  0.59800096  0.23017088  0.72361337     1.08500
O728        O  0.51246416  0.17139219  0.66378647    -0.81100
O729        O  0.51190431  0.07910639  0.59402952    -0.81200
O730        O  0.54686425  0.02560003  0.71805416    -0.81100
O731        O  0.54834853  0.22461685  0.53393770    -0.81100
O732        O  0.52383969  0.14335214  0.49248449    -0.81200
O733        O  0.52274425  0.10438397  0.76510831    -0.81100
O734        O  0.54306936  0.25192654  0.64864105    -0.81100
O735        O  0.54401469  0.99882675  0.60746487    -0.81200
Co736      Co  0.54986377  0.13135328  0.70333907     1.51500
Co737      Co  0.54963578  0.11835357  0.55653648     1.51700
Co738      Co  0.58133247  0.03428918  0.64993224     1.51600
Co739      Co  0.58094882  0.21389344  0.60721051     1.51500
O740        O  0.57293928  0.12427084  0.62974113    -1.43000
C741        C  0.51567989  0.22842039  0.66236084     1.08500
C742        C  0.51593409  0.02204085  0.59590984     1.08600
C743        C  0.52586452  0.04667333  0.75608358     1.08500
C744        C  0.52792328  0.20128122  0.49549061     1.08500
O745        O  0.55509441  0.72233127  0.03358433    -0.81100
O746        O  0.55613276  0.51092309  0.21963378    -0.81100
O747        O  0.51748560  0.53961989  0.09452766    -0.81100
O748        O  0.51516341  0.69378187  0.15902287    -0.81100
O749        O  0.55850178  0.47573772  0.11375316    -0.81200
O750        O  0.55464606  0.75919373  0.14000128    -0.81100
O751        O  0.51459399  0.57468433  0.20403858    -0.81100
O752        O  0.51421578  0.65918902  0.04924855    -0.81100
C753        C  0.52463596  0.70779111  0.02610933     1.08600
C754        C  0.52523184  0.52424370  0.22421526     1.08500
C755        C  0.52860866  0.48574672  0.09878827     1.08600
C756        C  0.52467748  0.74797891  0.15206922     1.08500
O757        O  0.61807098  0.70230404  0.16772326    -0.81100
O758        O  0.62103058  0.53552434  0.09013867    -0.81200
O759        O  0.57796636  0.63207724  0.99503497    -0.81100
O760        O  0.57670600  0.60292380  0.26159795    -0.81100
O761        O  0.61828512  0.58165216  0.20386720    -0.81200
O762        O  0.61834172  0.65588363  0.05511132    -0.81100
O763        O  0.57601436  0.71496618  0.22623017    -0.81100
O764        O  0.57926460  0.52234617  0.03050779    -0.81200
Co765      Co  0.58651175  0.70227711  0.10125209     1.51500
Co766      Co  0.58838370  0.53376539  0.15493202     1.51700
Co767      Co  0.54704004  0.59064441  0.04939097     1.51600
Co768      Co  0.54580221  0.64439939  0.20570684     1.51500
O769        O  0.56734978  0.61776288  0.12793740    -1.43000
C770        C  0.60648469  0.72356391  0.21443972     1.08500
C771        C  0.61015463  0.51743938  0.04149728     1.08600
C772        C  0.60852192  0.64126581  0.00531200     1.08500
C773        C  0.60736401  0.59184201  0.25378933     1.08500
O774        O  0.82375319  0.08242094  0.96160072    -0.81100
O775        O  0.75616233  0.13187727  0.23572576    -0.81100
O776        O  0.84408898  0.04588384  0.14702639    -0.81100
O777        O  0.73705938  0.06170382  0.05600244    -0.81100
O778        O  0.80780261  0.06895924  0.21303971    -0.81200
O779        O  0.78777509  0.02570923  0.04682336    -0.81100
O780        O  0.73476022  0.07468088  0.16880147    -0.81100
O781        O  0.85608919  0.08214826  0.03875077    -0.81100
C782        C  0.85054052  0.06543884  0.98593477     1.08600
C783        C  0.73871886  0.08583119  0.22140225     1.08500
C784        C  0.82619789  0.03074235  0.18853537     1.08600
C785        C  0.75733095  0.01714562  0.05715097     1.08500
O786        O  0.76158230  0.13340272  0.97971357    -0.81100
O787        O  0.81677520  0.18034123  0.26263623    -0.81200
O788        O  0.84570096  0.21179435  0.08455684    -0.81100
O789        O  0.73526184  0.20755798  0.15633743    -0.81100
O790        O  0.78662344  0.23690009  0.17146379    -0.81200
O791        O  0.81268735  0.19465640  0.01163348    -0.81100
O792        O  0.74128824  0.19367633  0.04522992    -0.81100
O793        O  0.85411996  0.17309721  0.19387110    -0.81200
Co794      Co  0.80168626  0.11001951  0.02998994     1.51500
Co795      Co  0.79837478  0.15268148  0.19130109     1.51700
Co796      Co  0.84390315  0.12855506  0.11525433     1.51600
Co797      Co  0.73980567  0.13407828  0.10680959     1.51500
O798        O  0.79010791  0.13026417  0.11071021    -1.43000
C799        C  0.74446741  0.18050567  0.99309363     1.08500
C800        C  0.84572211  0.19157213  0.24496361     1.08600
C801        C  0.82928781  0.23083468  0.04196725     1.08500
C802        C  0.75646910  0.24960405  0.16202517     1.08500
C803        C  0.81534480  0.60270454  0.13464011    -0.03500
C804        C  0.55582666  0.61011632  0.62682865    -0.03500
O805        O  0.70095160  0.26453184  0.48010526    -0.81100
O806        O  0.69442222  0.46376160  0.28250801    -0.81100
O807        O  0.74037061  0.33164027  0.30963566    -0.81100
O808        O  0.73807424  0.40360067  0.45449344    -0.81100
O809        O  0.69953410  0.35221867  0.24921896    -0.81200
O810        O  0.69911741  0.37702876  0.51524624    -0.81100
O811        O  0.73638931  0.45255802  0.34244545    -0.81100
O812        O  0.74208887  0.28082763  0.42081699    -0.81100
C813        C  0.73168258  0.25918567  0.46826258     1.08600
C814        C  0.72493184  0.47278507  0.29493974     1.08500
C815        C  0.73044008  0.34498254  0.25969530     1.08600
C816        C  0.72891600  0.39248571  0.50523528     1.08500
O817        O  0.63453058  0.40002296  0.46116716    -0.81100
O818        O  0.63622708  0.31702510  0.30297893    -0.81200
O819        O  0.68105602  0.22069760  0.39141473    -0.81100
O820        O  0.67155507  0.50326934  0.36976072    -0.81100
O821        O  0.63325865  0.43608937  0.34774286    -0.81200
O822        O  0.63904860  0.28086670  0.41440305    -0.81100
O823        O  0.67395567  0.46670057  0.47581543    -0.81100
O824        O  0.67920315  0.25842457  0.28475086    -0.81200
Co825      Co  0.66842212  0.33309725  0.46042134     1.51500
Co826      Co  0.66601159  0.38966075  0.30292763     1.51700
Co827      Co  0.71024019  0.28080705  0.35370473     1.51600
Co828      Co  0.70511058  0.44869849  0.40840450     1.51500
O829        O  0.68760933  0.36302486  0.38156961    -1.43000
C830        C  0.64383028  0.45056589  0.48248878     1.08500
C831        C  0.64791465  0.26914212  0.27957665     1.08600
C832        C  0.65085750  0.22819311  0.40446270     1.08500
C833        C  0.64161502  0.49055305  0.35738067     1.08500
O834        O  0.75562711  0.71465290  0.64943166    -0.81100
O835        O  0.75392928  0.55907207  0.58464942    -0.81100
O836        O  0.79797997  0.73753445  0.51887476    -0.81100
O837        O  0.79866709  0.53590591  0.71221214    -0.81100
O838        O  0.75552689  0.67829381  0.53582314    -0.81200
O839        O  0.75663411  0.59779743  0.69792189    -0.81100
O840        O  0.79414260  0.49444882  0.60828901    -0.81100
O841        O  0.79479940  0.77873332  0.62465462    -0.81100
C842        C  0.76478984  0.76813339  0.63809328     1.08600
C843        C  0.76364389  0.50545529  0.59671814     1.08500
C844        C  0.76737218  0.72546372  0.51169205     1.08600
C845        C  0.76825185  0.54929283  0.72040717     1.08500
O846        O  0.82152134  0.62839665  0.74756138    -0.81100
O847        O  0.81801472  0.64172675  0.48529138    -0.81200
O848        O  0.85910999  0.72488367  0.65561656    -0.81100
O849        O  0.85754033  0.54842201  0.57411874    -0.81100
O850        O  0.81489731  0.53006079  0.51871709    -0.81200
O851        O  0.81762954  0.74103264  0.71399956    -0.81100
O852        O  0.85732650  0.60931340  0.67960720    -0.81100
O853        O  0.85841219  0.66850463  0.54520427    -0.81200
Co854      Co  0.78784209  0.66806071  0.69516515     1.51500
Co855      Co  0.78559367  0.60522418  0.53841538     1.51700
Co856      Co  0.82729384  0.71975475  0.58845852     1.51600
Co857      Co  0.82711796  0.55384476  0.64151484     1.51500
O858        O  0.80651853  0.63684993  0.61568396    -1.43000
C859        C  0.85008967  0.61016489  0.73198129     1.08500
C860        C  0.84840179  0.65211884  0.49580175     1.08600
C861        C  0.84838335  0.74713011  0.70273485     1.08500
C862        C  0.84590787  0.52287590  0.52935383     1.08500
C863        C  0.80855385  0.09877717  0.63015218    -0.03500
C864        C  0.56213364  0.10570012  0.13305520    -0.03500
C865        C  0.59836525  0.19727858  0.26727910    -0.14300
C866        C  0.62571830  0.22805278  0.24357138     0.07800
C867        C  0.63071964  0.22142874  0.18397125    -0.14300
C868        C  0.60955974  0.18474613  0.14967551    -0.14300
C869        C  0.58406846  0.14834480  0.17376787     0.07800
C870        C  0.57817272  0.15796701  0.23343204    -0.14300
H871        H  0.59260614  0.20337003  0.31238320     0.11800
H872        H  0.65066840  0.24596916  0.16343520     0.11800
H873        H  0.61394265  0.18306159  0.10371700     0.11800
H874        H  0.55727684  0.13701192  0.25431334     0.11800
C875        C  0.74655065  0.22235087  0.56888930    -0.14300
C876        C  0.75395323  0.22444320  0.50958291     0.07800
C877        C  0.78118226  0.18952248  0.49045891    -0.14300
C878        C  0.79877626  0.15034026  0.52842730    -0.14300
C879        C  0.78984551  0.14404037  0.58740919     0.07800
C880        C  0.76491583  0.18479973  0.60724534    -0.14300
H881        H  0.72629108  0.24981989  0.58576885     0.11800
H882        H  0.78826216  0.19086933  0.44554292     0.11800
H883        H  0.81964726  0.12531655  0.51081487     0.11800
H884        H  0.75858703  0.18568470  0.65250676     0.11800
C885        C  0.75103468  0.40981362  0.55218298    -0.17400
C886        C  0.74074909  0.45533662  0.58644939    -0.32600
H887        H  0.77751876  0.40325432  0.54479189     0.11600
H888        H  0.71432723  0.46623065  0.58876110     0.12200
C889        C  0.57443423  0.50186191  0.58521319    -0.14300
C890        C  0.57816113  0.56638348  0.58808083     0.07800
C891        C  0.60455937  0.59077827  0.55526370    -0.14300
C892        C  0.62534226  0.55358728  0.52106216    -0.14300
C893        C  0.62063589  0.49011237  0.51735058     0.07800
C894        C  0.59479036  0.46490841  0.54981404    -0.14300
H895        H  0.55601826  0.47856002  0.61027957     0.11800
H896        H  0.60910272  0.63945647  0.55614399     0.11800
H897        H  0.64514140  0.57478690  0.49706988     0.11800
H898        H  0.59086310  0.41602360  0.54917384     0.11800
C899        C  0.78950562  0.58347228  0.23701299    -0.14300
C900        C  0.79043821  0.57066233  0.17693909     0.07800
C901        C  0.76665919  0.52860195  0.15619676    -0.14300
C902        C  0.74495120  0.49798109  0.19394523    -0.14300
C903        C  0.74668914  0.50718710  0.25403730     0.07800
C904        C  0.76906241  0.55081978  0.27477422    -0.14300
H905        H  0.80451021  0.61894281  0.25597974     0.11800
H906        H  0.76522075  0.51872100  0.11053459     0.11800
H907        H  0.72737779  0.46571363  0.17619820     0.11800
H908        H  0.77016708  0.56093352  0.32044684     0.11800
C909        C  0.74461755  0.31247337  0.16626167    -0.17400
C910        C  0.75439882  0.34273569  0.21296392    -0.32600
H911        H  0.71922758  0.31941498  0.15091268     0.11600
H912        H  0.78020386  0.33805275  0.22684039     0.12200
C913        C  0.61849156  0.53904967  0.34151212    -0.17400
C914        C  0.62906059  0.57940719  0.30264385    -0.32600
H915        H  0.59213313  0.52871372  0.34416347     0.11600
H916        H  0.65559420  0.58489149  0.29560896     0.12200
C917        C  0.63257078  0.17638402  0.42422951    -0.17400
C918        C  0.64159568  0.15791732  0.47692935    -0.32600
H919        H  0.60659462  0.17466580  0.41104205     0.11600
H920        H  0.66700617  0.16421916  0.49207010     0.12200
C921        C  0.87967070  0.29538832  0.36468844    -0.14300
C922        C  0.90945081  0.31916184  0.34104833     0.07800
C923        C  0.91878070  0.29368742  0.28698534    -0.14300
C924        C  0.89898401  0.25088688  0.25754461    -0.14300
C925        C  0.86883788  0.23060443  0.28031837     0.07800
C926        C  0.85973889  0.25289132  0.33489559    -0.14300
H927        H  0.87114383  0.30990313  0.40663821     0.11800
H928        H  0.94093995  0.30611848  0.26527129     0.11800
H929        H  0.90711713  0.23480749  0.21571005     0.11800
H930        H  0.83679516  0.23825016  0.35444951     0.11800
C931        C  0.94136792  0.47342683  0.32219776    -0.14300
C932        C  0.95041420  0.41085193  0.33129918     0.07800
C933        C  0.48304768  0.37906477  0.27915319    -0.14300
C934        C  0.50431155  0.41830994  0.24865463    -0.14300
C935        C  0.50221240  0.48208679  0.25545556     0.07800
C936        C  0.95770928  0.51087388  0.28150260    -0.14300
H937        H  0.92173766  0.49496932  0.34649168     0.11800
H938        H  0.48554016  0.33030378  0.27228174     0.11800
H939        H  0.52231752  0.39869116  0.21929828     0.11800
H940        H  0.95050775  0.55843540  0.27781186     0.11800
C941        C  0.94363481  0.28240961  0.45198909    -0.14300
C942        C  0.95653849  0.32733622  0.41452033     0.07800
C943        C  0.99175461  0.33402847  0.41660421    -0.14300
C944        C  0.50508308  0.30563736  0.46515164    -0.14300
C945        C  0.50813245  0.24218966  0.45580184     0.07800
C946        C  0.96423422  0.24424603  0.48590229    -0.14300
H947        H  0.91717419  0.27676763  0.45619769     0.11800
H948        H  0.48117452  0.39020808  0.44056164     0.11800
H949        H  0.51906103  0.32721750  0.49949852     0.11800
H950        H  0.95258316  0.21115570  0.51373693     0.11800
C951        C  0.90009155  0.46554411  0.50720852    -0.14300
C952        C  0.86788238  0.48447789  0.49014721     0.07800
C953        C  0.85699223  0.46621620  0.43494939    -0.14300
C954        C  0.87732342  0.43007442  0.39859249    -0.14300
C955        C  0.90910950  0.40798417  0.41644398     0.07800
C956        C  0.92020660  0.42833017  0.47133236    -0.14300
H957        H  0.90980265  0.47917536  0.54885932     0.11800
H958        H  0.83272533  0.48059370  0.41932146     0.11800
H959        H  0.86800739  0.41919143  0.35597814     0.11800
H960        H  0.94476778  0.41598990  0.48690221     0.11800
C961        C  0.62931769  0.82871859  0.33895128    -0.14300
C962        C  0.66270551  0.84400795  0.32778833     0.07800
C963        C  0.67836389  0.81347746  0.28121729    -0.14300
C964        C  0.66058187  0.77418557  0.24439612    -0.14300
C965        C  0.62684443  0.76211332  0.25430577     0.07800
C966        C  0.61180348  0.78897971  0.30282093    -0.14300
H967        H  0.61647548  0.84604762  0.37634469     0.11800
H968        H  0.70435469  0.82167259  0.27239817     0.11800
H969        H  0.67319498  0.75361520  0.20804200     0.11800
H970        H  0.58611649  0.77960174  0.31300793     0.11800
C971        C  0.68678155  0.95406688  0.27403892    -0.14300
C972        C  0.69956180  0.94001590  0.32947141     0.07800
C973        C  0.72295026  0.98198206  0.35256598    -0.14300
C974        C  0.73538745  0.03109497  0.31933526    -0.14300
C975        C  0.72365830  0.04140728  0.26283496     0.07800
C976        C  0.69864440  0.00278719  0.24173647    -0.14300
H977        H  0.66654482  0.92873809  0.25508761     0.11800
H978        H  0.73171441  0.97672243  0.39648295     0.11800
H979        H  0.75446172  0.06011905  0.33742480     0.11800
H980        H  0.68808727  0.00987400  0.19915184     0.11800
C981        C  0.66932054  0.92808455  0.46962640    -0.14300
C982        C  0.66107674  0.92447352  0.41041219     0.07800
C983        C  0.63303446  0.95870157  0.39134821    -0.14300
C984        C  0.61219854  0.98920397  0.43059290    -0.14300
C985        C  0.61966340  0.98865314  0.48974954     0.07800
C986        C  0.64884448  0.95882032  0.50838642    -0.14300
H987        H  0.69185340  0.90779821  0.48692962     0.11800
H988        H  0.62666410  0.96019833  0.34598031     0.11800
H989        H  0.59046838  0.01356135  0.41462183     0.11800
H990        H  0.65606401  0.95908268  0.55343403     0.11800
C991        C  0.76156139  0.80948581  0.43694422    -0.14300
C992        C  0.74670697  0.76538246  0.47278504     0.07800
C993        C  0.71211625  0.75961339  0.47034467    -0.14300
C994        C  0.69285898  0.79824058  0.43518851    -0.14300
C995        C  0.70721502  0.84447362  0.40059940     0.07800
C996        C  0.74223651  0.84766725  0.40065483    -0.14300
H997        H  0.78833860  0.81432416  0.43663483     0.11800
H998        H  0.69974841  0.72599242  0.49661230     0.11800
H999        H  0.66612553  0.79327923  0.43650768     0.11800
H1000       H  0.75501335  0.87945350  0.37326975     0.11800
C1001       C  0.66713837  0.33744050  0.76729351    -0.14300
C1002       C  0.66027267  0.35062877  0.82535319     0.07800
C1003       C  0.63201564  0.32220264  0.84990098    -0.14300
C1004       C  0.61109584  0.28429493  0.81736915    -0.14300
C1005       C  0.61824303  0.27216405  0.75962851     0.07800
C1006       C  0.64636124  0.29974879  0.73504719    -0.14300
H1007       H  0.68926966  0.35434071  0.74671680     0.11800
H1008       H  0.62606327  0.32882953  0.89480208     0.11800
H1009       H  0.58986744  0.26347022  0.83771922     0.11800
H1010       H  0.65294731  0.29129759  0.69055884     0.11800
C1011       C  0.68366590  0.44674722  0.95970042    -0.14300
C1012       C  0.66809259  0.42930319  0.90723639     0.07800
C1013       C  0.63572819  0.45198965  0.89688261    -0.14300
C1014       C  0.61784669  0.48148402  0.94020991    -0.14300
C1015       C  0.63184193  0.49150845  0.99519867     0.07800
C1016       C  0.66553537  0.47626490  0.00369271    -0.14300
H1017       H  0.70926575  0.43364957  0.96815495     0.11800
H1018       H  0.62345296  0.44490216  0.85583378     0.11800
H1019       H  0.59248988  0.49537899  0.93064447     0.11800
H1020       H  0.67753675  0.48536836  0.04467280     0.11800
C1021       C  0.68864445  0.30827022  0.94625789    -0.14300
C1022       C  0.70354623  0.33174688  0.89614053     0.07800
C1023       C  0.72900741  0.29502843  0.87101458    -0.14300
C1024       C  0.74212365  0.24297190  0.89983267    -0.14300
C1025       C  0.72822298  0.22385098  0.95214309     0.07800
C1026       C  0.70043699  0.25580988  0.97300350    -0.14300
H1027       H  0.66707992  0.32982586  0.96530491     0.11800
H1028       H  0.73904528  0.30677543  0.82939834     0.11800
H1029       H  0.76341054  0.21898653  0.88216158     0.11800
H1030       H  0.68833145  0.24150493  0.01228068     0.11800
C1031       C  0.74342837  0.43054532  0.83318755    -0.14300
C1032       C  0.70846331  0.42826688  0.82729796     0.07800
C1033       C  0.69356822  0.47053690  0.78842933    -0.14300
C1034       C  0.71265066  0.50982161  0.75425323    -0.14300
C1035       C  0.74749622  0.50897996  0.75784528     0.07800
C1036       C  0.76257187  0.46916609  0.79822826    -0.14300
H1037       H  0.75627796  0.40340600  0.86532379     0.11800
H1038       H  0.66679233  0.47236490  0.78360793     0.11800
H1039       H  0.70007964  0.54026238  0.72430413     0.11800
H1040       H  0.78935530  0.46861036  0.80358670     0.11800
C1041       C  0.63223697  0.63960673  0.95879528    -0.17400
C1042       C  0.62452474  0.67263151  0.91250534    -0.32600
H1043       H  0.65821690  0.63419769  0.97161614     0.11600
H1044       H  0.59851562  0.68180496  0.90217537     0.12200
C1045       C  0.62377943  0.03207697  0.83507247    -0.17400
C1046       C  0.63658412  0.06467252  0.79165975    -0.32600
H1047       H  0.59695229  0.02817512  0.83946126     0.11600
H1048       H  0.66306001  0.06252341  0.78263259     0.12200
C1049       C  0.59100232  0.74337818  0.72437689    -0.14300
C1050       C  0.62273393  0.72194297  0.74094139     0.07800
C1051       C  0.63263890  0.66422503  0.72002829    -0.14300
C1052       C  0.61153919  0.62932818  0.68411040    -0.14300
C1053       C  0.57988994  0.65138349  0.66504917     0.07800
C1054       C  0.57022905  0.70928800  0.68737170    -0.14300
H1055       H  0.58217796  0.78736627  0.73961500     0.11800
H1056       H  0.65666870  0.64534558  0.73218554     0.11800
H1057       H  0.62015304  0.58421240  0.67191150     0.11800
H1058       H  0.54652086  0.72961130  0.67713579     0.11800
C1059       C  0.59106507  0.98513386  0.01590541    -0.14300
C1060       C  0.62603752  0.98310200  0.02193330     0.07800
C1061       C  0.63987966  0.01886973  0.06623756    -0.14300
C1062       C  0.61988988  0.05546854  0.10265786    -0.14300
C1063       C  0.58492553  0.06194199  0.09448512     0.07800
C1064       C  0.57104966  0.02361833  0.05120986    -0.14300
H1065       H  0.57910649  0.95755930  0.98315272     0.11800
H1066       H  0.66643327  0.01729826  0.07407252     0.11800
H1067       H  0.63250744  0.07766116  0.13795818     0.11800
H1068       H  0.54442793  0.02395959  0.04404892     0.11800
C1069       C  0.75128032  0.83915800  0.70878855    -0.17400
C1070       C  0.74313471  0.81727887  0.65693698    -0.32600
H1071       H  0.77738069  0.84057960  0.72144425     0.11600
H1072       H  0.71698383  0.81237935  0.64577136     0.12200
C1073       C  0.77153460  0.65926904  0.99079144    -0.14300
C1074       C  0.75386241  0.71161612  0.00795630     0.07800
C1075       C  0.75538767  0.72750673  0.06697685    -0.14300
C1076       C  0.77497087  0.69342030  0.10695758    -0.14300
C1077       C  0.79372212  0.64153528  0.08983402     0.07800
C1078       C  0.79011934  0.62420254  0.03080481    -0.14300
H1079       H  0.76982840  0.64375191  0.94653946     0.11800
H1080       H  0.74132772  0.76660928  0.08234154     0.11800
H1081       H  0.77549888  0.70771664  0.15162096     0.11800
H1082       H  0.80112779  0.58242135  0.01465152     0.11800
C1083       C  0.73039412  0.02617922  0.70261309    -0.14300
C1084       C  0.74516044  0.99097816  0.74685784     0.07800
C1085       C  0.77992304  0.98565457  0.74801791    -0.14300
C1086       C  0.79935675  0.01710550  0.70803720    -0.14300
C1087       C  0.78499410  0.05806177  0.66730739     0.07800
C1088       C  0.74989840  0.05865576  0.66315158    -0.14300
H1089       H  0.70357572  0.02930819  0.69881156     0.11800
H1090       H  0.79219595  0.95722226  0.78001162     0.11800
H1091       H  0.82613863  0.01243289  0.71126614     0.11800
H1092       H  0.73704111  0.08380417  0.62972360     0.11800
C1093       C  0.75652492  0.90815771  0.03811634    -0.17400
C1094       C  0.74374958  0.95606073  0.06589683    -0.32600
H1095       H  0.78240233  0.90980828  0.02491474     0.11600
H1096       H  0.71766062  0.95514992  0.07794431     0.12200
C1097       C  0.98766631  0.19590908  0.82660560    -0.17400
C1098       C  0.49214721  0.26543995  0.69371465    -0.32600
H1099       H  0.01253084  0.18796945  0.84389082     0.11600
H1100       H  0.46576164  0.26100186  0.68413362     0.12200
C1101       C  0.83118898  0.30682338  0.96931908    -0.17400
C1102       C  0.83133175  0.29481424  0.02557739    -0.32600
H1103       H  0.81316040  0.28409855  0.94177049     0.11600
H1104       H  0.84730769  0.32127033  0.05357130     0.12200
C1105       C  0.84734950  0.17830123  0.76646160    -0.14300
C1106       C  0.87225945  0.21401168  0.74221941     0.07800
C1107       C  0.87543923  0.21438040  0.68190462    -0.14300
C1108       C  0.85508956  0.17771409  0.64680540    -0.14300
C1109       C  0.83037395  0.14002534  0.67060793     0.07800
C1110       C  0.82603111  0.14384518  0.73133663    -0.14300
H1111       H  0.84341032  0.17908190  0.81259741     0.11800
H1112       H  0.89404181  0.24264645  0.66185555     0.11800
H1113       H  0.85885116  0.17834535  0.60066933     0.11800
H1114       H  0.80588654  0.12133999  0.75287786     0.11800
C1115       C  0.96933337  0.20308214  0.08935788    -0.14300
C1116       C  0.96670964  0.19513731  0.02951261     0.07800
C1117       C  0.51620109  0.19190160  0.00809349    -0.14300
C1118       C  0.54062014  0.15732477  0.03743750    -0.14300
C1119       C  0.54023885  0.15225073  0.09791901     0.07800
C1120       C  0.51638418  0.18869359  0.12762516    -0.14300
H1121       H  0.95030454  0.22839143  0.11236086     0.11800
H1122       H  0.51721161  0.19329179  0.96150936     0.11800
H1123       H  0.55927022  0.13400827  0.01213474     0.11800
H1124       H  0.99711182  0.18508306  0.16638500     0.11800
C1125       C  0.86699388  0.56652560  0.76757172    -0.17400
C1126       C  0.87344412  0.51206745  0.74330995    -0.32600
H1127       H  0.87030130  0.57516980  0.81337934     0.11600
H1128       H  0.86959143  0.50338554  0.69759877     0.12200
C1129       C  0.88255215  0.54805061  0.02982157    -0.14300
C1130       C  0.88402524  0.48510499  0.03816245     0.07800
C1131       C  0.86402972  0.45855532  0.08058217    -0.14300
C1132       C  0.84115989  0.49460267  0.11176704    -0.14300
C1133       C  0.83824728  0.55797768  0.10104674     0.07800
C1134       C  0.86058260  0.58386814  0.06117330    -0.14300
H1135       H  0.89760305  0.56941631  0.99707248     0.11800
H1136       H  0.86532651  0.41008956  0.08825137     0.11800
H1137       H  0.82624733  0.47270730  0.14419323     0.11800
H1138       H  0.86019697  0.63251218  0.05284248     0.11800
C1139       C  0.51783109  0.53313848  0.76228539    -0.14300
C1140       C  0.00063996  0.50396304  0.75910323     0.07800
C1141       C  0.99827941  0.56815293  0.75847234    -0.14300
C1142       C  0.50500101  0.53907512  0.64462088    -0.14300
C1143       C  0.53291572  0.57118516  0.66688080     0.07800
C1144       C  0.53857015  0.56704307  0.72680776    -0.14300
H1145       H  0.52366446  0.53235187  0.80789901     0.11800
H1146       H  0.98015054  0.59160622  0.78501756     0.11800
H1147       H  0.01541488  0.65223183  0.72237064     0.11800
H1148       H  0.55916657  0.58962322  0.74758927     0.11800
C1149       C  0.00939867  0.44646548  0.98174923    -0.17400
C1150       C  0.51091262  0.43884759  0.06873485    -0.32600
H1151       H  0.02774027  0.47834126  0.96634804     0.11600
H1152       H  0.48488487  0.43276239  0.07955255     0.12200
C1153       C  0.82918864  0.97034497  0.21286010    -0.17400
C1154       C  0.82667923  0.96632565  0.27005637    -0.32600
H1155       H  0.84452804  0.93765183  0.18926970     0.11600
H1156       H  0.81331247  0.00106286  0.29444374     0.12200
C1157       C  0.50382183  0.79604859  0.17439780    -0.17400
C1158       C  0.00839918  0.82780321  0.22830670    -0.32600
H1159       H  0.47829633  0.79800915  0.15865590     0.11600
H1160       H  0.03268977  0.81805944  0.24705558     0.12200
C1161       C  0.85132178  0.69922853  0.15549846    -0.14300
C1162       C  0.84218235  0.63920307  0.16936018     0.07800
C1163       C  0.86242959  0.60806654  0.21091706    -0.14300
C1164       C  0.88765776  0.63783389  0.24205591    -0.14300
C1165       C  0.89517759  0.69859258  0.22997626     0.07800
C1166       C  0.87755256  0.72784801  0.18473912    -0.14300
H1167       H  0.83868615  0.72432619  0.12168645     0.11800
H1168       H  0.85760503  0.56071539  0.22107331     0.11800
H1169       H  0.89953813  0.61474811  0.27798657     0.11800
H1170       H  0.88250475  0.77528474  0.17490449     0.11800
C1171       C  0.96815645  0.01369037  0.16892101    -0.14300
C1172       C  0.97482528  0.99639923  0.22561270     0.07800
C1173       C  0.52360057  0.99606400  0.24695596    -0.14300
C1174       C  0.54698035  0.02858311  0.21434580    -0.14300
C1175       C  0.53711598  0.06256662  0.16566015     0.07800
C1176       C  0.50372740  0.05309752  0.14596722    -0.14300
H1177       H  0.94389076  0.00586734  0.14990162     0.11800
H1178       H  0.53221357  0.97394453  0.28608615     0.11800
H1179       H  0.57257848  0.02968366  0.22903935     0.11800
H1180       H  0.49501366  0.07244098  0.10571420     0.11800
C1181       C  0.86216534  0.70710770  0.41537882    -0.17400
C1182       C  0.87030808  0.65950262  0.44817056    -0.32600
H1183       H  0.83652174  0.72348281  0.41301490     0.11600
H1184       H  0.89633158  0.64731592  0.45534141     0.12200
C1185       C  0.98132516  0.67729644  0.55637329    -0.14300
C1186       C  0.99513590  0.71183365  0.51174660     0.07800
C1187       C  0.48288861  0.72069961  0.57710763    -0.14300
C1188       C  0.50417335  0.68337854  0.61135132    -0.14300
C1189       C  0.53206469  0.65137225  0.58790869     0.07800
C1190       C  0.53552033  0.65543971  0.52742335    -0.14300
H1191       H  0.95456612  0.67297743  0.55914353     0.11800
H1192       H  0.46239641  0.74481958  0.59722800     0.11800
H1193       H  0.49862874  0.67938258  0.65675652     0.11800
H1194       H  0.98902810  0.61730427  0.62698378     0.11800
C1195       C  0.83173377  0.97375254  0.51880250    -0.14300
C1196       C  0.86623707  0.96603209  0.52582504     0.07800
C1197       C  0.88209231  0.99807870  0.57054315    -0.14300
C1198       C  0.86418866  0.03999034  0.60494900    -0.14300
C1199       C  0.82977093  0.05109881  0.59552769     0.07800
C1200       C  0.81373913  0.01411356  0.55397653    -0.14300
H1201       H  0.81876579  0.94984040  0.48460691     0.11800
H1202       H  0.90870471  0.99330806  0.57682485     0.11800
H1203       H  0.87765848  0.06367851  0.63847777     0.11800
H1204       H  0.78721297  0.01899693  0.54666760     0.11800
C1205       C  0.00023924  0.95706249  0.47256938    -0.17400
C1206       C  0.49199959  0.98328255  0.56830408    -0.32600
H1207       H  0.01762060  0.92715752  0.49536009     0.11600
H1208       H  0.46568243  0.99498533  0.57087292     0.12200
C1209       C  0.91084772  0.93134757  0.96288422    -0.14300
C1210       C  0.91400169  0.92784104  0.90221093     0.07800
C1211       C  0.89568353  0.97170040  0.86968491    -0.14300
C1212       C  0.87580035  0.01699060  0.89626770    -0.14300
C1213       C  0.87377128  0.02107787  0.95662802     0.07800
C1214       C  0.89176545  0.97772745  0.98935885    -0.14300
H1215       H  0.92291396  0.89849700  0.99082469     0.11800
H1216       H  0.89708142  0.97120378  0.82311218     0.11800
H1217       H  0.86203807  0.04899526  0.86947235     0.11800
H1218       H  0.89013498  0.97825433  0.03592439     0.11800
C1219       C  0.97341527  0.97740616  0.85119529    -0.14300
C1220       C  0.96635862  0.91487147  0.84047636     0.07800
C1221       C  0.98932772  0.88251491  0.80572828    -0.14300
C1222       C  0.48419818  0.96147487  0.75409620    -0.14300
C1223       C  0.50421291  0.00205990  0.78608152     0.07800
C1224       C  0.99931213  0.00724746  0.82286482    -0.14300
H1225       H  0.95915135  0.00425138  0.88146610     0.11800
H1226       H  0.44792335  0.89031526  0.75501263     0.11800
H1227       H  0.48393723  0.96384973  0.70748391     0.11800
H1228       H  0.00282255  0.05556627  0.83018079     0.11800
C1229       C  0.88563579  0.81358266  0.84343247    -0.14300
C1230       C  0.91409707  0.84574782  0.82494434     0.07800
C1231       C  0.91873333  0.84761884  0.76415833    -0.14300
C1232       C  0.89833311  0.81466244  0.72534123    -0.14300
C1233       C  0.87093504  0.78104937  0.74454373     0.07800
C1234       C  0.86457505  0.78223507  0.80430263    -0.14300
H1235       H  0.87979037  0.81229896  0.88888270     0.11800
H1236       H  0.93769969  0.87535328  0.74509736     0.11800
H1237       H  0.90348149  0.81709609  0.67966697     0.11800
H1238       H  0.84339590  0.75800701  0.82112128     0.11800
C1239       C  0.96967861  0.73218817  0.95048763    -0.14300
C1240       C  0.50275481  0.74564272  0.98694404     0.07800
C1241       C  0.51726123  0.78316631  0.94523448    -0.14300
C1242       C  0.97966743  0.85787517  0.95284727    -0.14300
C1243       C  0.95534991  0.83515342  0.91374189     0.07800
C1244       C  0.95126417  0.77087398  0.91321040    -0.14300
H1245       H  0.96574989  0.68337218  0.94803667     0.11800
H1246       H  0.54404007  0.78384642  0.94045719     0.11800
H1247       H  0.51090236  0.84538401  0.87624139     0.11800
H1248       H  0.93447067  0.74918723  0.88331231     0.11800
loop_ 
_geom_bond_atom_site_label_1 
_geom_bond_atom_site_label_2 
_geom_bond_distance 
_geom_bond_site_symmetry_2 
_ccdc_geom_bond_type 
C1          C586   1.567       .  S
C1          C596   1.573       .  S
C1          C606   1.592       .  S
C1          C619   1.579       .  S
O2           C10   1.279       .  A
O2          Co22   1.895       .  S
O3           C11   1.280       .  A
O3          Co23   1.899       .  S
O4           C12   1.264       .  A
O4          Co24   1.993       .  S
O5           C13   1.262       .  A
O5          Co25   1.991       .  S
O6           C12   1.250       .  A
O6          Co23   1.946       .  S
O7           C13   1.244       .  A
O7          Co22   1.934       .  S
O8           C11   1.311       .  A
O8          Co25   2.137       .  S
O9           C10   1.310       .  A
O9          Co24   2.135       .  S
C10         C572   1.495       .  S
C11         C541   1.515       .  S
C12         C530   1.449       .  S
C13         C557   1.441       .  S
O14          C27   1.286       .  A
O14         Co22   2.079       .  S
O15          C28   1.291       .  A
O15         Co23   2.080       .  S
O16          C29   1.241       .  A
O16         Co24   1.941       .  S
O17          C30   1.242       .  A
O17         Co25   1.950       .  S
O18          C30   1.243       .  A
O18         Co23   1.965       .  S
O19          C29   1.240       .  A
O19         Co22   1.962       .  S
O20          C27   1.262       .  A
O20         Co25   1.962       .  S
O21          C28   1.258       .  A
O21         Co24   1.955       .  S
Co22         O26   1.971       .  S
Co23         O26   1.988       .  S
Co24         O26   2.081       .  S
Co25         O26   2.089       .  S
C27         C562   1.510       .  S
C28         C548   1.510       .  S
C29         C581   1.426       .  S
C30         C534   1.444       .  S
O31          C39   1.268       .  A
O31         Co51   1.996       .  S
O32          C40   1.249       .  A
O32         Co52   1.955       .  S
O33          C41   1.280       .  A
O33         Co53   1.947   1_554  S
O34          C42   1.290       .  A
O34         Co54   2.085       .  S
O35          C41   1.293   1_556  A
O35         Co52   2.067       .  S
O36          C42   1.264       .  A
O36         Co51   1.949       .  S
O37          C40   1.245       .  A
O37         Co54   1.971       .  S
O38          C39   1.241       .  A
O38         Co53   1.945       .  S
C39         C525   1.430   1_556  S
C40         C473   1.437       .  S
C41         C492   1.503       .  S
C42         C516   1.503       .  S
O43          C56   1.265       .  A
O43         Co51   2.003       .  S
O44          C57   1.257       .  A
O44         Co52   1.988       .  S
O45          C58   1.274       .  A
O45         Co53   2.039   1_554  S
O46          C59   1.271       .  A
O46         Co54   1.891       .  S
O47          C59   1.301       .  A
O47         Co52   2.109       .  S
O48          C58   1.256   1_556  A
O48         Co51   1.969       .  S
O49          C56   1.242       .  A
O49         Co54   1.936       .  S
O50          C57   1.235       .  A
O50         Co53   1.917       .  S
Co51         O55   2.063       .  S
Co52         O55   2.175       .  S
Co53         O55   1.923       .  S
Co54         O55   1.921       .  S
C56         C502   1.445       .  S
C57         C477   1.433       .  S
C58         C506   1.502       .  S
C59         C482   1.474       .  S
O60          C68   1.255       .  A
O60         Co80   1.956       .  S
O61          C69   1.275       .  A
O61         Co81   1.977       .  S
O62          C70   1.270       .  A
O62         Co82   2.009   1_545  S
O63          C71   1.239       .  A
O63         Co83   1.998       .  S
O64          C70   1.264   1_565  A
O64         Co81   1.946       .  S
O65          C71   1.233       .  A
O65         Co80   1.953       .  S
O66          C69   1.293       .  A
O66         Co83   2.078       .  S
O67          C68   1.277       .  A
O67         Co82   2.054       .  S
C68         C436   1.489   1_566  S
C69         C426   1.502       .  S
C70         C421   1.454       .  S
C71         C418   1.436       .  S
O72          C85   1.313       .  A
O72         Co80   2.149       .  S
O73          C86   1.260       .  A
O73         Co81   2.015       .  S
O74          C87   1.254   1_556  A
O74         Co82   1.956       .  S
O75          C88   1.259       .  A
O75         Co83   1.929       .  S
O76          C88   1.267       .  A
O76         Co81   1.980       .  S
O77          C87   1.261       .  A
O77         Co80   2.002   1_554  S
O78          C85   1.284       .  A
O78         Co83   1.901       .  S
O79          C86   1.263       .  A
O79         Co82   1.991       .  S
Co80         O84   2.077       .  S
Co81         O84   2.051       .  S
Co82         O84   2.080       .  S
Co83         O84   1.976       .  S
C85         C450   1.500   1_556  S
C86         C460   1.484   1_565  S
C87         C469   1.462       .  S
C88         C445   1.420       .  S
C89         C378   1.576       .  S
C89         C388   1.579       .  S
C89         C398   1.584       .  S
C89         C408   1.589       .  S
C90         C338   1.576       .  S
C90         C348   1.561       .  S
C90         C358   1.584       .  S
C90         C371   1.580       .  S
C91         C298   1.581       .  S
C91         C308   1.580       .  S
C91         C318   1.579       .  S
C91         C331   1.590       .  S
O92         C100   1.253       .  A
O92        Co112   1.938       .  S
O93         C101   1.261       .  A
O93        Co113   1.961       .  S
O94         C102   1.299       .  A
O94        Co114   2.097       .  S
O95         C103   1.313       .  A
O95        Co115   2.155       .  S
O96         C102   1.286       .  A
O96        Co113   1.938       .  S
O97         C103   1.270       .  A
O97        Co112   1.871       .  S
O98         C101   1.261       .  A
O98        Co115   1.946       .  S
O99         C100   1.260       .  A
O99        Co114   1.968       .  S
C100        C422   1.438       .  S
C101        C294   1.435       .  S
C102        C361   1.505   1_545  S
C103        C381   1.497       .  S
O104        C117   1.242       .  A
O104       Co112   1.959       .  S
O105        C118   1.248       .  A
O105       Co113   1.972       .  S
O106        C119   1.261       .  A
O106       Co114   1.963       .  S
O107        C120   1.271       .  A
O107       Co115   1.989       .  S
O108        C120   1.289       .  A
O108       Co113   2.077       .  S
O109        C119   1.278       .  A
O109       Co112   2.044       .  S
O110        C117   1.245   1_655  A
O110       Co115   1.955   1_655  S
O111        C118   1.246       .  A
O111       Co114   1.912       .  S
Co112       O116   1.965       .  S
Co113       O116   1.976       .  S
Co114       O116   2.092       .  S
Co115       O116   2.078       .  S
C117        C474   1.443   1_455  S
C118        C582   1.420       .  S
C119        C599   1.480   1_545  S
C120        C321   1.516   1_455  S
O121        C129   1.285       .  A
O121       Co141   2.066       .  S
O122        C130   1.274       .  A
O122       Co142   2.046       .  S
O123        C131   1.259       .  A
O123       Co143   1.953       .  S
O124        C132   1.263       .  A
O124       Co144   1.964       .  S
O125        C131   1.260       .  A
O125       Co142   1.994       .  S
O126        C132   1.260       .  A
O126       Co141   1.990       .  S
O127        C130   1.278   1_655  A
O127       Co144   2.010   1_655  S
O128        C129   1.274       .  A
O128       Co143   1.983       .  S
C129        C616   1.507   1_454  S
C130        C311   1.516   1_455  S
C131        C526   1.443       .  S
C132        C533   1.444       .  S
O133        C146   1.276       .  A
O133       Co141   2.002       .  S
O134        C147   1.270       .  A
O134       Co142   1.987       .  S
O135        C148   1.259   1_556  A
O135       Co143   1.969   1_556  S
O136        C149   1.256       .  A
O136       Co144   1.986       .  S
O137        C149   1.249       .  A
O137       Co142   1.930       .  S
O138        C148   1.259       .  A
O138       Co141   1.962       .  S
O139        C146   1.278       .  A
O139       Co144   2.046       .  S
O140        C147   1.279       .  A
O140       Co143   2.064       .  S
Co141       O145   2.103       .  S
Co142       O145   2.095       .  S
Co143       O145   2.093       .  S
Co144       O145   2.129       .  S
C146        C341   1.507       .  S
C147        C391   1.505       .  S
C148        C417   1.436   1_554  S
C149        C290   1.426       .  S
O150        C158   1.297   1_556  A
O150       Co170   1.981   1_556  S
O151        C159   1.275       .  A
O151       Co171   2.038       .  S
O152        C160   1.267       .  A
O152       Co172   1.974       .  S
O153        C161   1.262   1_545  A
O153       Co173   1.983       .  S
O154        C160   1.273       .  A
O154       Co171   1.989       .  S
O155        C161   1.245   1_545  A
O155       Co170   1.964       .  S
O156        C159   1.261       .  A
O156       Co173   1.957       .  S
O157        C158   1.298       .  A
O157       Co172   1.999       .  S
C158        C589   1.493   1_554  S
C159        C351   1.483   1_545  S
C160        C529   1.461   1_545  S
C161        C470   1.461       .  S
O162        C175   1.285       .  A
O162       Co170   2.054   1_556  S
O163        C176   1.262       .  A
O163       Co171   1.982       .  S
O164        C177   1.249       .  A
O164       Co172   2.022       .  S
O165        C178   1.259       .  A
O165       Co173   1.979       .  S
O166        C178   1.246       .  A
O166       Co171   1.927       .  S
O167        C177   1.221       .  A
O167       Co170   1.917       .  S
O168        C175   1.261   1_554  A
O168       Co173   1.973       .  S
O169        C176   1.282       .  A
O169       Co172   2.060       .  S
Co170       O174   1.975       .  S
Co171       O174   2.002       .  S
Co172       O174   2.056       .  S
Co173       O174   2.066       .  S
C175        C401   1.502       .  S
C176        C301   1.500       .  S
C177        C478   1.437       .  S
C178        C285   1.426       .  S
C179        C276   1.577       .  S
C179        C453   1.570       .  S
C179        C509   1.572       .  S
C179        C538   1.580       .  S
C180        C266   1.570       .  S
C180        C429   1.569       .  S
C180        C519   1.571       .  S
C180        C565   1.588       .  S
O181        C189   1.283       .  A
O181       Co201   1.892       .  S
O182        C190   1.282       .  A
O182       Co202   1.893       .  S
O183        C191   1.263       .  A
O183       Co203   1.969       .  S
O184        C192   1.261       .  A
O184       Co204   1.944       .  S
O185        C191   1.247       .  A
O185       Co202   1.944       .  S
O186        C192   1.259       .  A
O186       Co201   1.959       .  S
O187        C190   1.319       .  A
O187       Co204   2.174       .  S
O188        C189   1.316       .  A
O188       Co203   2.152       .  S
C189        C252   1.495       .  S
C190        C279   1.517       .  S
C191        C286   1.426       .  S
C192        C261   1.425       .  S
O193        C206   1.288       .  A
O193       Co201   2.067       .  S
O194        C207   1.284       .  A
O194       Co202   2.047       .  S
O195        C208   1.245       .  A
O195       Co203   1.942       .  S
O196        C209   1.223       .  A
O196       Co204   1.921       .  S
O197        C209   1.243       .  A
O197       Co202   2.013       .  S
O198        C208   1.245       .  A
O198       Co201   1.977       .  S
O199        C206   1.263       .  A
O199       Co204   1.955       .  S
O200        C207   1.271       .  A
O200       Co203   1.989       .  S
Co201       O205   1.936       .  S
Co202       O205   1.959       .  S
Co203       O205   2.057       .  S
Co204       O205   2.002       .  S
C206        C269   1.491       .  S
C207        C242   1.511       .  S
C208        C293   1.426       .  S
C209        C289   1.420       .  S
O210        C218   1.242       .  A
O210       Co230   1.983       .  S
O211        C219   1.236       .  A
O211       Co231   1.932       .  S
O212        C220   1.256       .  A
O212       Co232   1.962       .  S
O213        C221   1.263       .  A
O213       Co233   1.977       .  S
O214        C220   1.289       .  A
O214       Co231   2.096       .  S
O215        C221   1.291       .  A
O215       Co230   2.088       .  S
O216        C219   1.242       .  A
O216       Co233   1.943       .  S
O217        C218   1.231       .  A
O217       Co232   1.907       .  S
C218        C446   1.422       .  S
C219        C262   1.417       .  S
C220        C368   1.511       .  S
C221        C411   1.521       .  S
O222        C235   1.237       .  A
O222       Co230   1.931       .  S
O223        C236   1.243       .  A
O223       Co231   1.937       .  S
O224        C237   1.316       .  A
O224       Co232   2.163       .  S
O225        C238   1.317       .  A
O225       Co233   2.162       .  S
O226        C238   1.279       .  A
O226       Co231   1.901       .  S
O227        C237   1.279       .  A
O227       Co230   1.905       .  S
O228        C235   1.261       .  A
O228       Co233   2.002       .  S
O229        C236   1.260       .  A
O229       Co232   1.982       .  S
Co230       O234   1.976       .  S
Co231       O234   1.986       .  S
Co232       O234   2.090       .  S
Co233       O234   2.121       .  S
C235        C501   1.442       .  S
C236        C558   1.446       .  S
C237        C609   1.515       .  S
C238        C328   1.516       .  S
C239        C255   1.582       .  S
C239        C463   1.568       .  S
C239        C485   1.565       .  S
C239        C575   1.575       .  S
C240        C245   1.586       .  S
C240        C439   1.573       .  S
C240        C495   1.561       .  S
C240        C551   1.579       .  S
C241        C242   1.410       .  A
C241        C246   1.407       .  A
C241        H247   1.083       .  S
C242        C243   1.407       .  A
C243        C244   1.415       .  A
C243        H248   1.083       .  S
C244        C245   1.423       .  A
C244        H249   1.083       .  S
C245        C246   1.414       .  A
C246        H250   1.077       .  S
C251        C252   1.402       .  A
C251        C256   1.410       .  A
C251        H257   1.083       .  S
C252        C253   1.403       .  A
C253        C254   1.406       .  A
C253        H258   1.083       .  S
C254        C255   1.419       .  A
C254        H259   1.083       .  S
C255        C256   1.423       .  A
C256        H260   1.076       .  S
C261        C262   1.338       .  D
C261        H263   1.089       .  S
C262        H264   1.086       .  S
C265        C266   1.411       .  A
C265        C270   1.399       .  A
C265        H271   1.083       .  S
C266        C267   1.423       .  A
C267        C268   1.408       .  A
C267        H272   1.078       .  S
C268        C269   1.400       .  A
C268        H273   1.083       .  S
C269        C270   1.408       .  A
C270        H274   1.084       .  S
C275        C276   1.417       .  A
C275        C280   1.421       .  A
C275        H281   1.081       .  S
C276        C277   1.419       .  A
C277        C278   1.411       .  A
C277        H282   1.083       .  S
C278        C279   1.406       .  A
C278        H283   1.083       .  S
C279        C280   1.414       .  A
C280        H284   1.083       .  S
C285        C286   1.339       .  D
C285        H287   1.084       .  S
C286        H288   1.087       .  S
C289        C290   1.346       .  D
C289        H291   1.085       .  S
C290        H292   1.087       .  S
C293        C294   1.339       .  D
C293        H295   1.088       .  S
C294        H296   1.089       .  S
C297        C298   1.419       .  A
C297        C302   1.411       .  A
C297        H303   1.083       .  S
C298        C299   1.420       .  A
C299        C300   1.414       .  A
C299        H304   1.080       .  S
C300        C301   1.406       .  A
C300        H305   1.083       .  S
C301        C302   1.406       .  A
C302        H306   1.083       .  S
C307        C308   1.421       .  A
C307        C312   1.410       .  A
C307        H313   1.078       .  S
C308        C933   1.419       .  A
C309        C310   1.408       .  A
C309        C932   1.419       .  A
C309        H314   1.082       .  S
C310        C311   1.409       .  A
C310        H315   1.083   1_655  S
C311        C936   1.405       .  A
C312        C935   1.404       .  A
C312        H316   1.083       .  S
C317        C318   1.421       .  A
C317        C322   1.402       .  A
C317        H323   1.079       .  S
C318        C319   1.418       .  A
C319        C944   1.414       .  A
C319        H948   1.083       .  S
C320        C321   1.408   1_455  A
C320        C943   1.421   1_455  A
C320        H325   1.083       .  S
C321        C946   1.407       .  A
C322        C945   1.403       .  A
C322        H326   1.083       .  S
H324        C943   1.078   1_455  S
C327        C328   1.408       .  A
C327        C332   1.419       .  A
C327        H333   1.083       .  S
C328        C329   1.408       .  A
C329        C330   1.414       .  A
C329        H334   1.083       .  S
C330        C331   1.418       .  A
C330        H335   1.083       .  S
C331        C332   1.423       .  A
C332        H336   1.079       .  S
C337        C338   1.414       .  A
C337        C342   1.407       .  A
C337        H343   1.080       .  S
C338        C339   1.421       .  A
C339        C340   1.412       .  A
C339        H344   1.083       .  S
C340        C341   1.406       .  A
C340        H345   1.083       .  S
C341        C342   1.410       .  A
C342        H346   1.082       .  S
C347        C348   1.415       .  A
C347        C352   1.393       .  A
C347        H353   1.076       .  S
C348        C349   1.418       .  A
C349        C350   1.403       .  A
C349        H354   1.083       .  S
C350        C351   1.403       .  A
C350        H355   1.083   1_565  S
C351        C352   1.402       .  A
C352        H356   1.083       .  S
C357        C358   1.416       .  A
C357        C362   1.414       .  A
C357        H363   1.079       .  S
C358        C359   1.425       .  A
C359        C360   1.412       .  A
C359        H364   1.083       .  S
C360        C361   1.403       .  A
C360        H365   1.083   1_565  S
C361        C362   1.410       .  A
C362        H366   1.083       .  S
C367        C368   1.405       .  A
C367        C372   1.417       .  A
C367        H373   1.081       .  S
C368        C369   1.413       .  A
C369        C370   1.408       .  A
C369        H374   1.083       .  S
C370        C371   1.411       .  A
C370        H375   1.083       .  S
C371        C372   1.427       .  A
C372        H376   1.079       .  S
C377        C378   1.415       .  A
C377        C382   1.418       .  A
C377        H383   1.080       .  S
C378        C379   1.420       .  A
C379        C380   1.401       .  A
C379        H384   1.083       .  S
C380        C381   1.400       .  A
C380        H385   1.083       .  S
C381        C382   1.412       .  A
C382        H386   1.083       .  S
C387        C388   1.420       .  A
C387        C392   1.417   1_556  A
C387        H393   1.078   1_556  S
C388        C389   1.418       .  A
C389        C390   1.405       .  A
C389        H394   1.083       .  S
C390        C391   1.403   1_556  A
C390        H395   1.083       .  S
C391        C392   1.409       .  A
C392        H396   1.083       .  S
C397        C398   1.429       .  A
C397        C402   1.412       .  A
C397        H403   1.081       .  S
C398        C399   1.411       .  A
C399        C400   1.413       .  A
C399        H404   1.083       .  S
C400        C401   1.413       .  A
C400        H405   1.083   1_556  S
C401        C402   1.399       .  A
C402        H406   1.083       .  S
C407        C408   1.413       .  A
C407        C412   1.416       .  A
C407        H413   1.083       .  S
C408        C409   1.429       .  A
C409        C410   1.421       .  A
C409        H414   1.081       .  S
C410        C411   1.406       .  A
C410        H415   1.083       .  S
C411        C412   1.414       .  A
C412        H416   1.083       .  S
C417        C418   1.336       .  D
C417        H419   1.089       .  S
C418        H420   1.088       .  S
C421        C422   1.347       .  D
C421        H423   1.075       .  S
C422        H424   1.085   1_545  S
C425        C426   1.410       .  A
C425        C430   1.409       .  A
C425        H431   1.083       .  S
C426        C427   1.403       .  A
C427        C428   1.408       .  A
C427        H432   1.083       .  S
C428        C429   1.420       .  A
C428        H433   1.083       .  S
C429        C430   1.413       .  A
C430        H434   1.080       .  S
C435        C436   1.406   1_565  A
C435        C440   1.402   1_565  A
C435        H441   1.083   1_554  S
C436        C437   1.400       .  A
C437        C438   1.404       .  A
C437        H442   1.083       .  S
C438        C439   1.422       .  A
C438        H443   1.078       .  S
C439        C440   1.415       .  A
C440        H444   1.081       .  S
C445        C446   1.340       .  D
C445        H447   1.088       .  S
C446        H448   1.083       .  S
C449        C450   1.406   1_556  A
C449        C454   1.406   1_556  A
C449        H455   1.083       .  S
C450        C451   1.408       .  A
C451        C452   1.406       .  A
C451        H456   1.083       .  S
C452        C453   1.416       .  A
C452        H457   1.083       .  S
C453        C454   1.417       .  A
C454        H458   1.080       .  S
C459        C460   1.405   1_565  A
C459        C464   1.401   1_565  A
C459        H465   1.083       .  S
C460        C461   1.399       .  A
C461        C462   1.403       .  A
C461        H466   1.083       .  S
C462        C463   1.422       .  A
C462        H467   1.079       .  S
C463        C464   1.413       .  A
C464        H468   1.083       .  S
C469        C470   1.337       .  D
C469        H471   1.087       .  S
C470        H472   1.087       .  S
C473       C1098   1.342       .  D
C473        H475   1.083       .  S
C474       C1097   1.348       .  D
C474        H476   1.087       .  S
C477        C478   1.339   1_556  D
C477        H479   1.088       .  S
C478        H480   1.089       .  S
C481        C482   1.397       .  A
C481        C486   1.399       .  A
C481        H487   1.084       .  S
C482        C483   1.401       .  A
C483        C484   1.402       .  A
C483        H488   1.084       .  S
C484        C485   1.418       .  A
C484        H489   1.083       .  S
C485        C486   1.418       .  A
C486        H490   1.077       .  S
C491        C492   1.402       .  A
C491       C1120   1.407       .  A
C491        H497   1.083       .  S
C492       C1117   1.415       .  A
C493        C494   1.405   1_655  A
C493       C1116   1.405       .  A
C493        H498   1.083   1_554  S
C494        C495   1.414       .  A
C494        H499   1.079       .  S
C495        C496   1.416   1_455  A
C496       C1115   1.400       .  A
C496       H1124   1.083       .  S
H500       C1120   1.083       .  S
C501        C502   1.340       .  D
C501        H503   1.086       .  S
C502        H504   1.085       .  S
C505        C506   1.407       .  A
C505        C510   1.399       .  A
C505        H511   1.084       .  S
C506        C507   1.408       .  A
C507        C508   1.418       .  A
C507        H512   1.083       .  S
C508        C509   1.421       .  A
C508        H513   1.081       .  S
C509        C510   1.413       .  A
C510        H514   1.083       .  S
C515        C520   1.405       .  A
C515       C1140   1.405       .  A
C515        H521   1.083       .  S
C516        C517   1.406       .  A
C516       C1139   1.409       .  A
C517       C1142   1.415       .  A
C517        H522   1.083       .  S
C518        C519   1.415       .  A
C518       C1141   1.405   1_455  A
C518       H1147   1.083       .  S
C519        C520   1.419       .  A
C520        H524   1.079       .  S
H523       C1142   1.083       .  S
C525       C1150   1.337       .  D
C525        H527   1.082       .  S
C526       C1149   1.343   1_554  D
C526        H528   1.086   1_455  S
C529        C530   1.342       .  D
C529        H531   1.088       .  S
C530        H532   1.087   1_565  S
C533       C1158   1.349       .  D
C533        H535   1.086   1_455  S
C534       C1157   1.336       .  D
C534        H536   1.087       .  S
C537        C538   1.423       .  A
C537        C542   1.409       .  A
C537        H543   1.080       .  S
C538        C539   1.417       .  A
C539        C540   1.416       .  A
C539        H544   1.083       .  S
C540        C541   1.412       .  A
C540        H545   1.083       .  S
C541        C542   1.406       .  A
C542        H546   1.083       .  S
C547        C548   1.399   1_545  A
C547       C1176   1.413       .  A
C547        H553   1.083       .  S
C548       C1173   1.418       .  A
C549        C550   1.410       .  A
C549       C1172   1.414   1_445  A
C549        H554   1.083   1_545  S
C550        C551   1.410       .  A
C550        H555   1.082       .  S
C551        C552   1.428   1_455  A
C552       C1171   1.398       .  A
C552        H556   1.081       .  S
C557        C558   1.344       .  D
C557        H559   1.085       .  S
C558        H560   1.086       .  S
C561        C562   1.409       .  A
C561       C1190   1.400       .  A
C561        H567   1.083       .  S
C562       C1187   1.405       .  A
C563        C564   1.415       .  A
C563       C1186   1.408   1_455  A
C563        H568   1.083       .  S
C564        C565   1.419       .  A
C564        H569   1.083       .  S
C565        C566   1.424       .  A
C566       C1185   1.412   1_455  A
C566       H1194   1.077   1_455  S
H570       C1190   1.075       .  S
C571        C572   1.405   1_545  A
C571        C576   1.408       .  A
C571        H577   1.083       .  S
C572        C573   1.403       .  A
C573        C574   1.406   1_565  A
C573        H578   1.083       .  S
C574        C575   1.421       .  A
C574        H579   1.083       .  S
C575        C576   1.417       .  A
C576        H580   1.077       .  S
C581       C1206   1.340       .  D
C581        H583   1.088       .  S
C582       C1205   1.337   1_545  D
C582        H584   1.087   1_455  S
C585        C586   1.416       .  A
C585        C590   1.404   1_556  A
C585        H591   1.078       .  S
C586        C587   1.418       .  A
C587        C588   1.402   1_565  A
C587        H592   1.083       .  S
C588        C589   1.403       .  A
C588        H593   1.083       .  S
C589        C590   1.407   1_546  A
C590        H594   1.083       .  S
C595        C596   1.426       .  A
C595        C600   1.402       .  A
C595        H601   1.083       .  S
C596        C597   1.412       .  A
C597       C1222   1.412       .  A
C597       H1226   1.080       .  S
C598        C599   1.404       .  A
C598       C1221   1.404   1_455  A
C598        H603   1.083       .  S
C599       C1224   1.398   1_465  A
C600       C1223   1.395   1_565  A
C600        H604   1.083   1_565  S
H602       C1221   1.083       .  S
C605        C606   1.418       .  A
C605        C610   1.419       .  A
C605        H611   1.083       .  S
C606        C607   1.427       .  A
C607        C608   1.416       .  A
C607        H612   1.079       .  S
C608        C609   1.404       .  A
C608        H613   1.083       .  S
C609        C610   1.411       .  A
C610        H614   1.083       .  S
C615        C620   1.416       .  A
C615       C1240   1.409       .  A
C615        H621   1.083   1_556  S
C616        C617   1.405       .  A
C616       C1239   1.408       .  A
C617       C1242   1.410       .  A
C617        H622   1.083   1_656  S
C618        C619   1.420       .  A
C618       C1241   1.403       .  A
C618       H1247   1.079       .  S
C619        C620   1.418       .  A
C620        H624   1.083       .  S
H623       C1242   1.083       .  S
C625       C1210   1.576       .  S
C625       C1220   1.569       .  S
C625       C1230   1.595       .  S
C625       C1243   1.582       .  S
O626        C634   1.281       .  A
O626       Co646   2.053       .  S
O627        C635   1.246       .  A
O627       Co647   1.921       .  S
O628        C636   1.266       .  A
O628       Co648   1.986       .  S
O629        C637   1.244       .  A
O629       Co649   1.992       .  S
O630        C636   1.244       .  A
O630       Co647   1.927       .  S
O631        C637   1.234       .  A
O631       Co646   1.940       .  S
O632        C635   1.286       .  A
O632       Co649   2.089       .  S
O633        C634   1.264       .  A
O633       Co648   1.976       .  S
C634       C1196   1.491       .  S
C635       C1165   1.483       .  S
C636       C1154   1.430       .  S
C637       C1181   1.429       .  S
O638        C651   1.303       .  A
O638       Co646   2.017       .  S
O639        C652   1.277       .  A
O639       Co647   2.033       .  S
O640        C653   1.255       .  A
O640       Co648   1.934       .  S
O641        C654   1.271       .  A
O641       Co649   1.973       .  S
O642        C654   1.271       .  A
O642       Co647   1.975       .  S
O643        C653   1.253       .  A
O643       Co646   1.959       .  S
O644        C651   1.305       .  A
O644       Co649   2.021       .  S
O645        C652   1.257       .  A
O645       Co648   1.967       .  S
Co646       O650   1.974       .  S
Co647       O650   1.984       .  S
Co648       O650   2.025       .  S
Co649       O650   2.087       .  S
C651       C1186   1.508       .  S
C652       C1172   1.492       .  S
C653       C1205   1.436   1_655  S
C654       C1158   1.463   1_655  S
O655        C663   1.271       .  A
O655       Co675   1.998       .  S
O656        C664   1.243       .  A
O656       Co676   1.946       .  S
O657        C665   1.278   1_554  A
O657       Co677   1.925   1_554  S
O658        C666   1.265       .  A
O658       Co678   1.989       .  S
O659        C665   1.307       .  A
O659       Co676   2.031       .  S
O660        C666   1.269       .  A
O660       Co675   2.021       .  S
O661        C664   1.258       .  A
O661       Co678   1.968       .  S
O662        C663   1.256       .  A
O662       Co677   1.951       .  S
C663       C1149   1.436   1_655  S
C664       C1097   1.450       .  S
C665       C1116   1.475   1_556  S
C666       C1140   1.498   1_655  S
O667        C680   1.253       .  A
O667       Co675   1.912       .  S
O668        C681   1.225       .  A
O668       Co676   1.958       .  S
O669        C682   1.266   1_554  A
O669       Co677   2.029   1_554  S
O670        C683   1.270       .  A
O670       Co678   1.985       .  S
O671        C683   1.281       .  A
O671       Co676   2.031       .  S
O672        C682   1.255       .  A
O672       Co675   1.962       .  S
O673        C680   1.267       .  A
O673       Co678   1.984       .  S
O674        C681   1.245       .  A
O674       Co677   2.006       .  S
Co675       O679   2.019       .  S
Co676       O679   2.006       .  S
Co677       O679   2.050       .  S
Co678       O679   2.052       .  S
C680       C1126   1.419       .  S
C681       C1101   1.453       .  S
C682       C1130   1.468   1_556  S
C683       C1106   1.489       .  S
O684        C692   1.267       .  A
O684       Co704   2.003       .  S
O685        C693   1.269       .  A
O685       Co705   1.987       .  S
O686        C694   1.268       .  A
O686       Co706   1.995       .  S
O687        C695   1.267       .  A
O687       Co707   1.988       .  S
O688        C694   1.264       .  A
O688       Co705   1.962       .  S
O689        C695   1.262       .  A
O689       Co704   1.957       .  S
O690        C693   1.280       .  A
O690       Co707   2.066       .  S
O691        C692   1.279       .  A
O691       Co706   2.074       .  S
C692       C1060   1.523   1_556  S
C693       C1050   1.515       .  S
C694       C1045   1.448   1_565  S
C695       C1042   1.439       .  S
O696        C709   1.272       .  A
O696       Co704   2.038       .  S
O697        C710   1.270       .  A
O697       Co705   2.037       .  S
O698        C711   1.252       .  A
O698       Co706   1.944       .  S
O699        C712   1.265       .  A
O699       Co707   1.958       .  S
O700        C712   1.272       .  A
O700       Co705   2.010       .  S
O701        C711   1.277   1_554  A
O701       Co704   2.034   1_554  S
O702        C709   1.276       .  A
O702       Co707   2.018       .  S
O703        C710   1.269       .  A
O703       Co706   1.991       .  S
Co704       O708   2.099       .  S
Co705       O708   2.099       .  S
Co706       O708   2.094       .  S
Co707       O708   2.112       .  S
C709       C1074   1.514   1_556  S
C710       C1084   1.497       .  S
C711       C1093   1.456   1_556  S
C712       C1069   1.458       .  S
C713       C1002   1.557       .  S
C713       C1012   1.561       .  S
C713       C1022   1.562       .  S
C713       C1032   1.567       .  S
C714        C962   1.567       .  S
C714        C972   1.574       .  S
C714        C982   1.558       .  S
C714        C995   1.567       .  S
C715        C922   1.596       .  S
C715        C932   1.601       .  S
C715        C942   1.594       .  S
C715        C955   1.591       .  S
O716        C724   1.247       .  A
O716       Co736   1.991       .  S
O717        C725   1.246       .  A
O717       Co737   1.983       .  S
O718        C726   1.269       .  A
O718       Co738   1.961       .  S
O719        C727   1.261       .  A
O719       Co739   1.944       .  S
O720        C726   1.285       .  A
O720       Co737   2.044       .  S
O721        C727   1.286       .  A
O721       Co736   2.053       .  S
O722        C725   1.241       .  A
O722       Co739   1.949       .  S
O723        C724   1.246       .  A
O723       Co738   1.955       .  S
C724       C1046   1.447       .  S
C725        C918   1.442       .  S
C726        C985   1.485   1_545  S
C727       C1005   1.486       .  S
O728        C741   1.257       .  A
O728       Co736   1.957       .  S
O729        C742   1.259       .  A
O729       Co737   1.960       .  S
O730        C743   1.306       .  A
O730       Co738   2.120       .  S
O731        C744   1.315       .  A
O731       Co739   2.152       .  S
O732        C744   1.282       .  A
O732       Co737   1.886       .  S
O733        C743   1.285       .  A
O733       Co736   1.905       .  S
O734        C741   1.263       .  A
O734       Co739   1.983       .  S
O735        C742   1.261   1_565  A
O735       Co738   1.956   1_565  S
Co736       O740   1.955       .  S
Co737       O740   1.940       .  S
Co738       O740   2.050       .  S
Co739       O740   2.060       .  S
C741       C1098   1.440       .  S
C742       C1206   1.436   1_545  S
C743       C1223   1.491       .  S
C744        C945   1.504       .  S
O745        C753   1.279       .  A
O745       Co765   2.054       .  S
O746        C754   1.279       .  A
O746       Co766   2.056       .  S
O747        C755   1.261       .  A
O747       Co767   1.950       .  S
O748        C756   1.261       .  A
O748       Co768   1.955       .  S
O749        C755   1.266       .  A
O749       Co766   1.995       .  S
O750        C756   1.265       .  A
O750       Co765   1.996       .  S
O751        C754   1.269       .  A
O751       Co768   1.985       .  S
O752        C753   1.268       .  A
O752       Co767   1.989       .  S
C753       C1240   1.505   1_554  S
C754        C935   1.504       .  S
C755       C1150   1.432       .  S
C756       C1157   1.438       .  S
O757        C770   1.269       .  A
O757       Co765   1.991       .  S
O758        C771   1.272       .  A
O758       Co766   2.004       .  S
O759        C772   1.268   1_556  A
O759       Co767   2.002   1_556  S
O760        C773   1.268       .  A
O760       Co768   2.003       .  S
O761        C773   1.261       .  A
O761       Co766   1.959       .  S
O762        C772   1.261       .  A
O762       Co765   1.951       .  S
O763        C770   1.273       .  A
O763       Co768   2.028       .  S
O764        C771   1.270       .  A
O764       Co767   2.019       .  S
Co765       O769   2.106       .  S
Co766       O769   2.111       .  S
Co767       O769   2.081       .  S
Co768       O769   2.088       .  S
C770        C965   1.496       .  S
C771       C1015   1.496   1_554  S
C772       C1041   1.446   1_554  S
C773        C914   1.451       .  S
O774        C782   1.266       .  A
O774       Co794   1.918   1_556  S
O775        C783   1.276       .  A
O775       Co795   2.047       .  S
O776        C784   1.253       .  A
O776       Co796   1.955       .  S
O777        C785   1.265       .  A
O777       Co797   1.977       .  S
O778        C784   1.250       .  A
O778       Co795   1.935       .  S
O779        C785   1.265       .  A
O779       Co794   1.974       .  S
O780        C783   1.254       .  A
O780       Co797   1.954       .  S
O781        C782   1.297   1_554  A
O781       Co796   2.103       .  S
C782       C1213   1.506       .  S
C783        C975   1.503       .  S
C784       C1153   1.442   1_545  S
C785       C1094   1.464   1_545  S
O786        C799   1.274       .  A
O786       Co794   2.046   1_556  S
O787        C800   1.263       .  A
O787       Co795   1.909       .  S
O788        C801   1.254       .  A
O788       Co796   1.960       .  S
O789        C802   1.267       .  A
O789       Co797   1.983       .  S
O790        C802   1.259       .  A
O790       Co795   1.954       .  S
O791        C801   1.253       .  A
O791       Co794   1.957       .  S
O792        C799   1.251   1_554  A
O792       Co797   1.938       .  S
O793        C800   1.298       .  A
O793       Co796   2.107       .  S
Co794       O798   1.982       .  S
Co795       O798   1.960       .  S
Co796       O798   2.165       .  S
Co797       O798   2.025       .  S
C799       C1025   1.488       .  S
C800        C925   1.507       .  S
C801       C1102   1.455       .  S
C802        C909   1.456       .  S
C803        C900   1.577       .  S
C803       C1077   1.593       .  S
C803       C1133   1.551       .  S
C803       C1162   1.567       .  S
C804        C890   1.589       .  S
C804       C1053   1.594       .  S
C804       C1143   1.571       .  S
C804       C1189   1.587       .  S
O805        C813   1.272       .  A
O805       Co825   2.032       .  S
O806        C814   1.276       .  A
O806       Co826   2.051       .  S
O807        C815   1.257       .  A
O807       Co827   1.949       .  S
O808        C816   1.261       .  A
O808       Co828   1.958       .  S
O809        C815   1.273       .  A
O809       Co826   2.010       .  S
O810        C816   1.271       .  A
O810       Co825   2.016       .  S
O811        C814   1.271       .  A
O811       Co828   1.990       .  S
O812        C813   1.274       .  A
O812       Co827   2.010       .  S
C813        C876   1.509       .  S
C814        C903   1.503       .  S
C815        C910   1.456       .  S
C816        C885   1.454       .  S
O817        C830   1.270       .  A
O817       Co825   1.992       .  S
O818        C831   1.268       .  A
O818       Co826   2.000       .  S
O819        C832   1.263       .  A
O819       Co827   1.980       .  S
O820        C833   1.269       .  A
O820       Co828   2.002       .  S
O821        C833   1.261       .  A
O821       Co826   1.960       .  S
O822        C832   1.264       .  A
O822       Co825   1.962       .  S
O823        C830   1.276       .  A
O823       Co828   2.047       .  S
O824        C831   1.283       .  A
O824       Co827   2.084       .  S
Co825       O829   2.099       .  S
Co826       O829   2.097       .  S
Co827       O829   2.112       .  S
Co828       O829   2.101       .  S
C830        C893   1.506       .  S
C831        C866   1.519       .  S
C832        C917   1.435       .  S
C833        C913   1.451       .  S
O834        C842   1.259       .  A
O834       Co854   1.951       .  S
O835        C843   1.265       .  A
O835       Co855   1.959       .  S
O836        C844   1.271       .  A
O836       Co856   2.029       .  S
O837        C845   1.271       .  A
O837       Co857   2.047       .  S
O838        C844   1.273       .  A
O838       Co855   1.997       .  S
O839        C845   1.268       .  A
O839       Co854   1.996       .  S
O840        C843   1.275       .  A
O840       Co857   2.015       .  S
O841        C842   1.272       .  A
O841       Co856   2.015       .  S
C842       C1070   1.447       .  S
C843        C886   1.457       .  S
C844        C992   1.499       .  S
C845       C1035   1.502       .  S
O846        C859   1.267       .  A
O846       Co854   2.006       .  S
O847        C860   1.267       .  A
O847       Co855   1.976       .  S
O848        C861   1.273       .  A
O848       Co856   2.014       .  S
O849        C862   1.268       .  A
O849       Co857   1.995       .  S
O850        C862   1.278       .  A
O850       Co855   2.067       .  S
O851        C861   1.274       .  A
O851       Co854   2.050       .  S
O852        C859   1.252       .  A
O852       Co857   1.934       .  S
O853        C860   1.265       .  A
O853       Co856   1.954       .  S
Co854       O858   2.107       .  S
Co855       O858   2.095       .  S
Co856       O858   2.105       .  S
Co857       O858   2.077       .  S
C859       C1125   1.428       .  S
C860       C1182   1.429       .  S
C861       C1233   1.521       .  S
C862        C952   1.520       .  S
C863        C879   1.584       .  S
C863       C1087   1.570       .  S
C863       C1109   1.571       .  S
C863       C1199   1.566       .  S
C864        C869   1.595       .  S
C864       C1063   1.597       .  S
C864       C1119   1.567       .  S
C864       C1175   1.583       .  S
C865        C866   1.411       .  A
C865        C870   1.421       .  A
C865        H871   1.082       .  S
C866        C867   1.406       .  A
C867        C868   1.416       .  A
C867        H872   1.083       .  S
C868        C869   1.422       .  A
C868        H873   1.083       .  S
C869        C870   1.422       .  A
C870        H874   1.079       .  S
C875        C876   1.411       .  A
C875        C880   1.413       .  A
C875        H881   1.083       .  S
C876        C877   1.404       .  A
C877        C878   1.413       .  A
C877        H882   1.083       .  S
C878        C879   1.425       .  A
C878        H883   1.080       .  S
C879        C880   1.415       .  A
C880        H884   1.083       .  S
C885        C886   1.338       .  D
C885        H887   1.088       .  S
C886        H888   1.088       .  S
C889        C890   1.423       .  A
C889        C894   1.412       .  A
C889        H895   1.077       .  S
C890        C891   1.420       .  A
C891        C892   1.409       .  A
C891        H896   1.083       .  S
C892        C893   1.406       .  A
C892        H897   1.083       .  S
C893        C894   1.405       .  A
C894        H898   1.083       .  S
C899        C900   1.423       .  A
C899        C904   1.406       .  A
C899        H905   1.079       .  S
C900        C901   1.415       .  A
C901        C902   1.415       .  A
C901        H906   1.083       .  S
C902        C903   1.410       .  A
C902        H907   1.083       .  S
C903        C904   1.401       .  A
C904        H908   1.083       .  S
C909        C910   1.329       .  D
C909        H911   1.088       .  S
C910        H912   1.088       .  S
C913        C914   1.338       .  D
C913        H915   1.088       .  S
C914        H916   1.088       .  S
C917        C918   1.336       .  D
C917        H919   1.087       .  S
C918        H920   1.088       .  S
C921        C922   1.424       .  A
C921        C926   1.411       .  A
C921        H927   1.081       .  S
C922        C923   1.424       .  A
C923        C924   1.408       .  A
C923        H928   1.064       .  S
C924        C925   1.402       .  A
C924        H929   1.084       .  S
C925        C926   1.406       .  A
C926        H930   1.082       .  S
C931        C932   1.430       .  A
C931        C936   1.420       .  A
C931        H937   1.078       .  S
C933        C934   1.412       .  A
C933        H938   1.083       .  S
C934        C935   1.407       .  A
C934        H939   1.083       .  S
C936        H940   1.081       .  S
C941        C942   1.418       .  A
C941        C946   1.408       .  A
C941        H947   1.077       .  S
C942        C943   1.426       .  A
C944        C945   1.410       .  A
C944        H949   1.083       .  S
C946        H950   1.083       .  S
C951        C952   1.411       .  A
C951        C956   1.416       .  A
C951        H957   1.083       .  S
C952        C953   1.410       .  A
C953        C954   1.415       .  A
C953        H958   1.083       .  S
C954        C955   1.422       .  A
C954        H959   1.082       .  S
C955        C956   1.420       .  A
C956        H960   1.081       .  S
C961        C962   1.412       .  A
C961        C966   1.399       .  A
C961        H967   1.080       .  S
C962        C963   1.418       .  A
C963        C964   1.408       .  A
C963        H968   1.083       .  S
C964        C965   1.405       .  A
C964        H969   1.083       .  S
C965        C966   1.407       .  A
C966        H970   1.083       .  S
C971        C972   1.415       .  A
C971        C976   1.394   1_565  A
C971        H977   1.080       .  S
C972        C973   1.423       .  A
C973        C974   1.421   1_565  A
C973        H978   1.082       .  S
C974        C975   1.408       .  A
C974        H979   1.083       .  S
C975        C976   1.405       .  A
C976        H980   1.084       .  S
C981        C982   1.414       .  A
C981        C986   1.392       .  A
C981        H987   1.081       .  S
C982        C983   1.417       .  A
C983        C984   1.406       .  A
C983        H988   1.083       .  S
C984        C985   1.404       .  A
C984        H989   1.083   1_565  S
C985        C986   1.404       .  A
C986        H990   1.083       .  S
C991        C992   1.414       .  A
C991        C996   1.412       .  A
C991        H997   1.083       .  S
C992        C993   1.399       .  A
C993        C994   1.401       .  A
C993        H998   1.083       .  S
C994        C995   1.422       .  A
C994        H999   1.082       .  S
C995        C996   1.411       .  A
C996       H1000   1.079       .  S
C1001      C1002   1.406       .  A
C1001      C1006   1.393       .  A
C1001      H1007   1.081       .  S
C1002      C1003   1.423       .  A
C1003      C1004   1.403       .  A
C1003      H1008   1.080       .  S
C1004      C1005   1.397       .  A
C1004      H1009   1.083       .  S
C1005      C1006   1.411       .  A
C1006      H1010   1.083       .  S
C1011      C1012   1.419       .  A
C1011      C1016   1.411   1_556  A
C1011      H1017   1.083       .  S
C1012      C1013   1.408       .  A
C1013      C1014   1.394       .  A
C1013      H1018   1.082       .  S
C1014      C1015   1.409       .  A
C1014      H1019   1.083       .  S
C1015      C1016   1.405   1_556  A
C1016      H1020   1.083       .  S
C1021      C1022   1.412       .  A
C1021      C1026   1.384       .  A
C1021      H1027   1.080       .  S
C1022      C1023   1.423       .  A
C1023      C1024   1.418       .  A
C1023      H1028   1.082       .  S
C1024      C1025   1.406       .  A
C1024      H1029   1.083       .  S
C1025      C1026   1.401       .  A
C1026      H1030   1.084   1_556  S
C1031      C1032   1.413       .  A
C1031      C1036   1.410       .  A
C1031      H1037   1.080       .  S
C1032      C1033   1.419       .  A
C1033      C1034   1.407       .  A
C1033      H1038   1.082       .  S
C1034      C1035   1.403       .  A
C1034      H1039   1.083       .  S
C1035      C1036   1.411       .  A
C1036      H1040   1.083       .  S
C1041      C1042   1.329       .  D
C1041      H1043   1.090       .  S
C1042      H1044   1.088       .  S
C1045      C1046   1.344       .  D
C1045      H1047   1.088       .  S
C1046      H1048   1.087       .  S
C1049      C1050   1.407       .  A
C1049      C1054   1.412       .  A
C1049      H1055   1.083       .  S
C1050      C1051   1.408       .  A
C1051      C1052   1.414       .  A
C1051      H1056   1.083       .  S
C1052      C1053   1.425       .  A
C1052      H1057   1.081       .  S
C1053      C1054   1.420       .  A
C1054      H1058   1.074       .  S
C1059      C1060   1.413       .  A
C1059      C1064   1.422   1_565  A
C1059      H1065   1.083   1_554  S
C1060      C1061   1.407   1_565  A
C1061      C1062   1.413       .  A
C1061      H1066   1.082       .  S
C1062      C1063   1.423       .  A
C1062      H1067   1.078       .  S
C1063      C1064   1.422       .  A
C1064      H1068   1.082       .  S
C1069      C1070   1.335       .  D
C1069      H1071   1.089       .  S
C1070      H1072   1.088       .  S
C1073      C1074   1.401   1_556  A
C1073      C1078   1.411   1_556  A
C1073      H1079   1.083       .  S
C1074      C1075   1.414       .  A
C1075      C1076   1.421       .  A
C1075      H1080   1.083       .  S
C1076      C1077   1.415       .  A
C1076      H1081   1.083       .  S
C1077      C1078   1.428       .  A
C1078      H1082   1.080       .  S
C1083      C1084   1.409   1_545  A
C1083      C1088   1.408       .  A
C1083      H1089   1.083       .  S
C1084      C1085   1.402       .  A
C1085      C1086   1.403   1_565  A
C1085      H1090   1.083       .  S
C1086      C1087   1.420       .  A
C1086      H1091   1.083       .  S
C1087      C1088   1.414       .  A
C1088      H1092   1.078       .  S
C1093      C1094   1.331       .  D
C1093      H1095   1.088       .  S
C1094      H1096   1.088       .  S
C1097      H1099   1.087   1_655  S
C1098      H1100   1.088       .  S
C1101      C1102   1.332   1_556  D
C1101      H1103   1.087       .  S
C1102      H1104   1.082       .  S
C1105      C1106   1.398       .  A
C1105      C1110   1.403       .  A
C1105      H1111   1.084       .  S
C1106      C1107   1.407       .  A
C1107      C1108   1.407       .  A
C1107      H1112   1.083       .  S
C1108      C1109   1.413       .  A
C1108      H1113   1.083       .  S
C1109      C1110   1.424       .  A
C1110      H1114   1.078       .  S
C1115      C1116   1.403       .  A
C1115      H1121   1.084       .  S
C1117      C1118   1.407       .  A
C1117      H1122   1.083   1_554  S
C1118      C1119   1.409       .  A
C1118      H1123   1.080       .  S
C1119      C1120   1.423       .  A
C1125      C1126   1.342       .  D
C1125      H1127   1.087       .  S
C1126      H1128   1.088       .  S
C1129      C1130   1.392       .  A
C1129      C1134   1.385       .  A
C1129      H1135   1.084   1_554  S
C1130      C1131   1.405       .  A
C1131      C1132   1.409       .  A
C1131      H1136   1.077       .  S
C1132      C1133   1.413       .  A
C1132      H1137   1.081       .  S
C1133      C1134   1.417       .  A
C1134      H1138   1.082       .  S
C1139      C1144   1.395       .  A
C1139      H1145   1.083       .  S
C1140      C1141   1.408   1_455  A
C1141      H1146   1.083       .  S
C1142      C1143   1.424       .  A
C1143      C1144   1.411       .  A
C1144      H1148   1.079       .  S
C1149      H1151   1.083       .  S
C1150      H1152   1.087       .  S
C1153      C1154   1.335       .  D
C1153      H1155   1.090       .  S
C1154      H1156   1.088   1_565  S
C1157      H1159   1.088       .  S
C1158      H1160   1.086       .  S
C1161      C1162   1.406       .  A
C1161      C1166   1.403       .  A
C1161      H1167   1.080       .  S
C1162      C1163   1.428       .  A
C1163      C1164   1.406       .  A
C1163      H1168   1.083       .  S
C1164      C1165   1.396       .  A
C1164      H1169   1.082       .  S
C1165      C1166   1.414       .  A
C1166      H1170   1.084       .  S
C1171      C1172   1.393   1_545  A
C1171      H1177   1.083       .  S
C1173      C1174   1.410   1_565  A
C1173      H1178   1.083       .  S
C1174      C1175   1.407       .  A
C1174      H1179   1.083       .  S
C1175      C1176   1.432       .  A
C1176      H1180   1.081       .  S
C1181      C1182   1.329       .  D
C1181      H1183   1.090       .  S
C1182      H1184   1.089       .  S
C1185      C1186   1.404       .  A
C1185      H1191   1.083       .  S
C1187      C1188   1.418       .  A
C1187      H1192   1.083       .  S
C1188      C1189   1.427       .  A
C1188      H1193   1.083       .  S
C1189      C1190   1.415       .  A
C1195      C1196   1.405       .  A
C1195      C1200   1.402   1_565  A
C1195      H1201   1.084       .  S
C1196      C1197   1.405       .  A
C1197      C1198   1.411   1_565  A
C1197      H1202   1.083       .  S
C1198      C1199   1.419       .  A
C1198      H1203   1.080       .  S
C1199      C1200   1.414       .  A
C1200      H1204   1.083       .  S
C1205      H1207   1.088       .  S
C1206      H1208   1.088       .  S
C1209      C1210   1.417       .  A
C1209      C1214   1.410       .  A
C1209      H1215   1.079       .  S
C1210      C1211   1.420       .  A
C1211      C1212   1.412   1_565  A
C1211      H1216   1.083       .  S
C1212      C1213   1.407       .  A
C1212      H1217   1.083       .  S
C1213      C1214   1.408   1_545  A
C1214      H1218   1.083   1_556  S
C1219      C1220   1.422       .  A
C1219      C1224   1.402   1_565  A
C1219      H1225   1.080   1_565  S
C1220      C1221   1.415       .  A
C1222      C1223   1.411   1_565  A
C1222      H1227   1.083       .  S
C1224      H1228   1.081   1_655  S
C1229      C1230   1.419       .  A
C1229      C1234   1.418       .  A
C1229      H1235   1.083       .  S
C1230      C1231   1.425       .  A
C1231      C1232   1.416       .  A
C1231      H1236   1.077       .  S
C1232      C1233   1.406       .  A
C1232      H1237   1.083       .  S
C1233      C1234   1.412       .  A
C1234      H1238   1.083       .  S
C1239      C1244   1.413       .  A
C1239      H1245   1.083       .  S
C1240      C1241   1.404       .  A
C1241      H1246   1.084       .  S
C1242      C1243   1.422       .  A
C1243      C1244   1.418       .  A
C1244      H1248   1.078       .  S
