geometry optimzed in LAMMPS
_audit_creation_date              2020-11-30 
_audit_creation_method            'lammps2cif' 
_symmetry_space_group_name_H-M    'P1' 
_symmetry_Int_Tables_number       1 
_symmetry_cell_setting            triclinic 
loop_ 
_symmetry_equiv_pos_as_xyz 
  x,y,z 
_cell_length_a                    36.44426893 
_cell_length_b                    36.49191639828413 
_cell_length_c                    77.32459427351202 
_cell_angle_alpha                 88.8692757982989 
_cell_angle_beta                  90.21665761306113 
_cell_angle_gamma                 90.2288623350942 
loop_ 
_atom_site_label 
_atom_site_type_symbol 
_atom_site_fract_x 
_atom_site_fract_y 
_atom_site_fract_z 
_atom_site_charge 
O1          O  0.48707425  0.41555580  0.68638497    -0.72500
O2          O  0.47804285  0.03633282  0.69164191    -0.73500
O3          O  0.48960398  0.47177550  0.66014426    -0.62100
O4          O  0.47358757  0.97931136  0.71772120    -0.70600
O5          O  0.01962231  0.99269921  0.71718547    -0.70100
O6          O  0.04479154  0.48742679  0.66592569    -0.61400
O7          O  0.00578446  0.04643965  0.69067446    -0.73900
O8          O  0.02767485  0.43075720  0.69070849    -0.72700
Cu9        Cu  0.46609244  0.98204256  0.69170516     1.04600
Cu10       Cu  0.03566012  0.48674224  0.69152554     1.04300
C11         C  0.99561903  0.41675020  0.68848464     0.93600
C12         C  0.51065042  0.04921396  0.69032117     0.92800
C13         C  0.52174945  0.47184367  0.65354314     0.84900
C14         C  0.99268873  0.98916610  0.72767004     0.91200
O15         O  0.52004697  0.16831703  0.68351887    -0.72500
O16         O  0.52006710  0.27957915  0.68515592    -0.73500
O17         O  0.53573724  0.22769451  0.65868571    -0.62100
O18         O  0.50626832  0.22070145  0.70955269    -0.70600
O19         O  0.04647775  0.23411458  0.70748386    -0.70100
O20         O  0.01686859  0.23666055  0.65675353    -0.61400
O21         O  0.03714641  0.29068957  0.68186978    -0.73900
O22         O  0.02808885  0.18095363  0.68259966    -0.72700
Cu23       Cu  0.51853921  0.22400705  0.68389963     1.04600
Cu24       Cu  0.03406625  0.23551849  0.68186746     1.04300
C25         C  0.54874634  0.15006206  0.68774547     0.93600
C26         C  0.54944247  0.29710656  0.68890001     0.92800
C27         C  0.56983407  0.22879105  0.65464990     0.84900
C28         C  0.53140002  0.22112487  0.72116280     0.91200
O29         O  0.28126827  0.49526762  0.66648685    -0.72500
O30         O  0.26440660  0.49101140  0.71776884    -0.73500
O31         O  0.27085913  0.43737167  0.69130354    -0.62100
O32         O  0.26064753  0.05069738  0.68983539    -0.70600
O33         O  0.19994620  0.04797154  0.68858901    -0.70100
O34         O  0.21052930  0.44008853  0.68776076    -0.61400
O35         O  0.20427210  0.49523739  0.71346971    -0.73900
O36         O  0.22096627  0.49605175  0.66213148    -0.72700
Cu37       Cu  0.27481501  0.49326383  0.69222967     1.04600
Cu38       Cu  0.21044568  0.49551946  0.68764997     1.04300
C39         C  0.25368956  0.49581592  0.65628841     0.93600
C40         C  0.23179465  0.49301551  0.72368876     0.92800
C41         C  0.23989358  0.42120532  0.68919009     0.84900
C42         C  0.22957099  0.06695481  0.68905900     0.91200
O43         O  0.22709572  0.18895992  0.68721879    -0.72500
O44         O  0.23191980  0.30120502  0.68608121    -0.73500
O45         O  0.23000755  0.24532197  0.66030021    -0.62100
O46         O  0.22846893  0.24638135  0.71257572    -0.70600
O47         O  0.28915158  0.24227286  0.71360562    -0.70100
O48         O  0.29084509  0.24402228  0.66083091    -0.61400
O49         O  0.29261950  0.29828092  0.68725179    -0.73900
O50         O  0.28787805  0.18758539  0.68740432    -0.72700
Cu51       Cu  0.22725381  0.24536416  0.68649195     1.04600
Cu52       Cu  0.29217989  0.24282032  0.68725266     1.04300
C53         C  0.25709564  0.17066066  0.68754800     0.93600
C54         C  0.26321812  0.31728074  0.68688002     0.92800
C55         C  0.26065309  0.24534671  0.65231820     0.84900
C56         C  0.25830928  0.24544415  0.72130746     0.91200
O57         O  0.99375635  0.42286654  0.77710820    -0.72500
O58         O  0.98590335  0.41152112  0.82925655    -0.73500
O59         O  0.43258803  0.43217675  0.80657497    -0.62100
O60         O  0.04506410  0.41732991  0.80490120    -0.70600
O61         O  0.04578741  0.03503501  0.80573467    -0.70100
O62         O  0.43254663  0.99008222  0.80955648    -0.61400
O63         O  0.99123194  0.05154292  0.83141469    -0.73900
O64         O  0.98757533  0.02006548  0.78151370    -0.72700
Cu65       Cu  0.98965533  0.41494511  0.80306013     1.04600
Cu66       Cu  0.98892588  0.03715476  0.80617499     1.04300
C67         C  0.98529344  0.98621458  0.77773105     0.93600
C68         C  0.99468277  0.02785338  0.84369380     0.92800
C69         C  0.41401524  0.96165112  0.80556004     0.84900
C70         C  0.06270411  0.00490222  0.80919526     0.91200
O71         O  0.08318435  0.24018203  0.80089499    -0.72500
O72         O  0.46773532  0.20715030  0.80231153    -0.73500
O73         O  0.52637639  0.20675865  0.77735629    -0.62100
O74         O  0.52020635  0.19707682  0.82941963    -0.70600
O75         O  0.52258537  0.25761179  0.83156489    -0.70100
O76         O  0.53261552  0.26699227  0.77947663    -0.61400
O77         O  0.47167082  0.26762463  0.80364275    -0.73900
O78         O  0.07303730  0.30000160  0.79968127    -0.72700
Cu79       Cu  0.52339252  0.20011420  0.80336865     1.04600
Cu80       Cu  0.52763195  0.26462305  0.80561598     1.04300
C81         C  0.09552920  0.27313894  0.80009846     0.93600
C82         C  0.45203815  0.23852819  0.80285757     0.92800
C83         C  0.53123412  0.23830445  0.77023157     0.84900
C84         C  0.51957328  0.22574864  0.83861162     0.91200
O85         O  0.24308177  0.44778346  0.78197057    -0.72500
O86         O  0.23766376  0.45661403  0.83353780    -0.73500
O87         O  0.18395704  0.44890739  0.80676415    -0.62100
O88         O  0.29582769  0.45614486  0.80861198    -0.70600
O89         O  0.30072786  0.03226046  0.80597277    -0.70100
O90         O  0.19060285  0.04942090  0.80463479    -0.61400
O91         O  0.24486190  0.04049947  0.83117525    -0.73900
O92         O  0.24758338  0.04144407  0.77937876    -0.72700
Cu93       Cu  0.24019549  0.45021431  0.80784234     1.04600
Cu94       Cu  0.24619650  0.04295442  0.80526772     1.04300
C95         C  0.24229874  0.01180314  0.77123877     0.93600
C96         C  0.24129557  0.01012242  0.83945079     0.92800
C97         C  0.16851730  0.02204923  0.80527658     0.84900
C98         C  0.31392728  0.99981842  0.80571104     0.91200
O99         O  0.28080952  0.22220471  0.78246066    -0.72500
O100        O  0.27377110  0.25382214  0.83286247    -0.73500
O101        O  0.22226826  0.23304296  0.80662200    -0.62100
O102        O  0.33276996  0.24041811  0.80846822    -0.70600
O103        O  0.32999048  0.29831996  0.79946416    -0.70100
O104        O  0.21685658  0.29148079  0.79873902    -0.61400
O105        O  0.27106141  0.31186112  0.82392495    -0.73900
O106        O  0.27448827  0.28039491  0.77421045    -0.72700
Cu107      Cu  0.27754854  0.23546119  0.80795574     1.04600
Cu108      Cu  0.27313025  0.29758565  0.79881743     1.04300
C109        C  0.27822903  0.24669949  0.77042263     0.93600
C110        C  0.27064412  0.28797727  0.83620382     0.92800
C111        C  0.20201792  0.26035740  0.80247762     0.84900
C112        C  0.34909927  0.26994968  0.80371213     0.91200
O113        O  0.06217629  0.51182757  0.32857030    -0.72500
O114        O  0.03925245  0.52048733  0.27738788    -0.73500
O115        O  0.01960669  0.07648970  0.30887416    -0.62100
O116        O  0.05099929  0.46059870  0.30161154    -0.70600
O117        O  0.50493302  0.45134554  0.30716912    -0.70100
O118        O  0.48294650  0.07058617  0.30276477    -0.61400
O119        O  0.47936616  0.50104610  0.28113734    -0.73900
O120        O  0.49945973  0.50701259  0.33229848    -0.72700
Cu121      Cu  0.05264022  0.51649730  0.30283969     1.04600
Cu122      Cu  0.48722419  0.50365930  0.30690762     1.04300
C123        C  0.53170525  0.51507022  0.33758046     0.93600
C124        C  0.50458178  0.51025546  0.27045686     0.92800
C125        C  0.51409336  0.08693542  0.30380534     0.84900
C126        C  0.53823340  0.44269786  0.30408705     0.91200
O127        O  0.03553937  0.27080330  0.28036312    -0.72500
O128        O  0.02029368  0.26387502  0.33248284    -0.73500
O129        O  0.03145960  0.21256634  0.30583220    -0.62100
O130        O  0.02594864  0.32245729  0.30701000    -0.70600
O131        O  0.50448623  0.31499055  0.30984296    -0.70100
O132        O  0.51332049  0.20540841  0.30958299    -0.61400
O133        O  0.52284054  0.26118064  0.33587222    -0.73900
O134        O  0.49809648  0.26062032  0.28357010    -0.72700
Cu135      Cu  0.03037880  0.26754361  0.30655999     1.04600
Cu136      Cu  0.50769117  0.26023413  0.30997797     1.04300
C137        C  0.52461315  0.26547015  0.27284589     0.93600
C138        C  0.55645956  0.26498581  0.34066720     0.92800
C139        C  0.54378901  0.19019915  0.30605155     0.84900
C140        C  0.53178161  0.33630428  0.30714615     0.91200
O141        O  0.26990898  0.50110213  0.27985335    -0.72500
O142        O  0.26919526  0.49828755  0.33205321    -0.73500
O143        O  0.26102739  0.44489070  0.30536424    -0.62100
O144        O  0.26959145  0.05835609  0.30242130    -0.70600
O145        O  0.20890794  0.06197285  0.30328575    -0.70100
O146        O  0.20102433  0.45468523  0.30480675    -0.61400
O147        O  0.20893468  0.50717287  0.33177139    -0.73900
O148        O  0.21015130  0.51277695  0.27983176    -0.72700
Cu149      Cu  0.27172766  0.49940949  0.30593917     1.04600
Cu150      Cu  0.20752741  0.50997547  0.30576977     1.04300
C151        C  0.24001080  0.50760519  0.27167225     0.93600
C152        C  0.23896776  0.50266226  0.34006507     0.92800
C153        C  0.22816370  0.43252643  0.30457629     0.84900
C154        C  0.24036807  0.07765114  0.30217250     0.91200
O155        O  0.20834287  0.31438272  0.30011809    -0.72500
O156        O  0.19361068  0.20385353  0.29830976    -0.73500
O157        O  0.20262096  0.25630356  0.32514603    -0.62100
O158        O  0.19908139  0.26329200  0.27290824    -0.70600
O159        O  0.25888000  0.25287870  0.27143150    -0.70100
O160        O  0.26306237  0.24954367  0.32412684    -0.61400
O161        O  0.25386532  0.19605389  0.29783457    -0.73900
O162        O  0.26840450  0.30606659  0.29816720    -0.72700
Cu163      Cu  0.19880956  0.25954923  0.29908726     1.04600
Cu164      Cu  0.26311236  0.25076937  0.29780290     1.04300
C165        C  0.24095326  0.32753364  0.29959892     0.93600
C166        C  0.22144267  0.18250443  0.29829877     0.92800
C167        C  0.23350004  0.25268850  0.33284485     0.84900
C168        C  0.22823322  0.25988617  0.26393188     0.91200
O169        O  0.08498846  0.49288516  0.39867598    -0.72500
O170        O  0.09242510  0.48902008  0.45122857    -0.73500
O171        O  0.09100609  0.43605103  0.42482830    -0.62100
O172        O  0.92951283  0.07928251  0.42396821    -0.70600
O173        O  0.47094259  0.07344812  0.42642599    -0.70100
O174        O  0.58968840  0.45369002  0.42119155    -0.61400
O175        O  0.54127786  0.46756880  0.44872989    -0.73900
O176        O  0.53731647  0.47897115  0.39693742    -0.72700
Cu177      Cu  0.09110655  0.49065460  0.42487320     1.04600
Cu178      Cu  0.53859180  0.47123711  0.42270929     1.04300
C179        C  0.54857757  0.50864315  0.38969707     0.93600
C180        C  0.55403882  0.49349345  0.45791991     0.92800
C181        C  0.61822696  0.47409210  0.42153062     0.84900
C182        C  0.50490365  0.08075154  0.42868216     0.91200
O183        O  0.98298371  0.21834852  0.39841976    -0.72500
O184        O  0.96564280  0.20504393  0.44991302    -0.73500
O185        O  0.93331999  0.17641579  0.41925270    -0.62100
O186        O  0.01495728  0.24648183  0.42862119    -0.70600
O187        O  0.60579894  0.34623102  0.42396518    -0.70100
O188        O  0.54801125  0.25390073  0.43076781    -0.61400
O189        O  0.58562537  0.30206707  0.45309935    -0.73900
O190        O  0.56607198  0.29764945  0.40157350    -0.72700
Cu191      Cu  0.97548183  0.20980294  0.42409082     1.04600
Cu192      Cu  0.57476819  0.30131443  0.42742084     1.04300
C193        C  0.58744535  0.27959761  0.39186309     0.93600
C194        C  0.61373815  0.28683308  0.46007946     0.92800
C195        C  0.56579919  0.22387806  0.43060604     0.84900
C196        C  0.64049665  0.34532599  0.42157900     0.91200
O197        O  0.26362969  0.48743186  0.40116966    -0.72500
O198        O  0.26730161  0.49040915  0.45293358    -0.73500
O199        O  0.22993651  0.44706033  0.42819872    -0.62100
O200        O  0.30272672  0.03529404  0.42533825    -0.70600
O201        O  0.25497110  0.07314791  0.42472385    -0.70100
O202        O  0.18149531  0.48402136  0.42742492    -0.61400
O203        O  0.21786997  0.52572822  0.45324092    -0.73900
O204        O  0.21607972  0.52538381  0.40089475    -0.72700
Cu205      Cu  0.26689924  0.48753059  0.42708704     1.04600
Cu206      Cu  0.21514189  0.52710113  0.42703912     1.04300
C207        C  0.23943947  0.50596461  0.39289450     0.93600
C208        C  0.24351543  0.50852606  0.46128568     0.92800
C209        C  0.19525171  0.45204320  0.42754952     0.84900
C210        C  0.28956148  0.06752210  0.42494449     0.91200
O211        O  0.17737371  0.28082218  0.42040937    -0.72500
O212        O  0.25086453  0.20011922  0.42222643    -0.73500
O213        O  0.21520432  0.24292067  0.44735611    -0.62100
O214        O  0.21306484  0.23765843  0.39500366    -0.70600
O215        O  0.25962046  0.27698843  0.39334916    -0.70100
O216        O  0.26321462  0.28037764  0.44575295    -0.61400
O217        O  0.29804822  0.23883651  0.42010207    -0.73900
O218        O  0.22490828  0.31920665  0.41898564    -0.72700
Cu219      Cu  0.21253621  0.23888973  0.42125306     1.04600
Cu220      Cu  0.26292860  0.28039372  0.41945415     1.04300
C221        C  0.19038563  0.31324056  0.41970953     0.93600
C222        C  0.28536886  0.20643408  0.42161453     0.92800
C223        C  0.23990591  0.26206061  0.45481817     0.84900
C224        C  0.23603776  0.25640408  0.38598576     0.91200
O225        O  0.45273759  0.95651407  0.04282710    -0.72500
O226        O  0.45987578  0.97723088  0.09367669    -0.73500
O227        O  0.05675051  0.15266639  0.07340742    -0.62100
O228        O  0.40342159  0.95365155  0.07070220    -0.70600
O229        O  0.47052838  0.45223066  0.06710018    -0.70100
O230        O  0.04408021  0.49642948  0.06728672    -0.61400
O231        O  0.51572127  0.48080613  0.09378643    -0.73900
O232        O  0.52113401  0.47772499  0.04183737    -0.72700
Cu233      Cu  0.45550364  0.96839687  0.06809816     1.04600
Cu234      Cu  0.51939897  0.47732198  0.06789149     1.04300
C235        C  0.50819252  0.50416901  0.03260051     0.93600
C236        C  0.50092371  0.50835885  0.10086883     0.92800
C237        C  0.03387801  0.52983212  0.06618742     0.84900
C238        C  0.44169459  0.47151762  0.06515561     0.91200
O239        O  0.50459518  0.26855199  0.09350838    -0.72500
O240        O  0.50621675  0.25737938  0.04176320    -0.73500
O241        O  0.45456673  0.28017855  0.06594570    -0.62100
O242        O  0.99813110  0.34030312  0.06498117    -0.70600
O243        O  0.05277234  0.31367357  0.06732644    -0.70100
O244        O  0.43366009  0.22316020  0.06879643    -0.61400
O245        O  0.48639321  0.20005877  0.04439308    -0.73900
O246        O  0.48471882  0.21120995  0.09652510    -0.72700
Cu247      Cu  0.50595775  0.26487869  0.06747256     1.04600
Cu248      Cu  0.48465865  0.20353350  0.07053273     1.04300
C249        C  0.49454924  0.24157913  0.10317032     0.93600
C250        C  0.49701579  0.22711413  0.03485374     0.92800
C251        C  0.42801635  0.25739254  0.06639021     0.84900
C252        C  0.03287696  0.34239229  0.06637694     0.91200
O253        O  0.26994062  0.05921903  0.09420020    -0.72500
O254        O  0.26810450  0.06272192  0.04202038    -0.73500
O255        O  0.24900668  0.11248856  0.06877821    -0.62100
O256        O  0.28908426  0.01100919  0.06790055    -0.70600
O257        O  0.26513735  0.45321139  0.06839690    -0.70100
O258        O  0.17253929  0.51085240  0.07155376    -0.61400
O259        O  0.21401135  0.48206875  0.04431610    -0.73900
O260        O  0.22351461  0.48137535  0.09592053    -0.72700
Cu261      Cu  0.27104911  0.06226573  0.06813348     1.04600
Cu262      Cu  0.21754804  0.48011470  0.07018314     1.04300
C263        C  0.24081981  0.50725392  0.10326659     0.93600
C264        C  0.22813361  0.50817264  0.03528694     0.92800
C265        C  0.17301524  0.54586607  0.07071668     0.84900
C266        C  0.29473188  0.47154818  0.06652819     0.91200
O267        O  0.18866859  0.40472745  0.06594423    -0.72500
O268        O  0.28331902  0.35257699  0.06147060    -0.73500
O269        O  0.23415009  0.38493126  0.03722351    -0.62100
O270        O  0.23903766  0.36923076  0.09018378    -0.70600
O271        O  0.21024969  0.31599976  0.08742197    -0.70100
O272        O  0.20575410  0.33134056  0.03563632    -0.61400
O273        O  0.25546758  0.29855498  0.05949421    -0.73900
O274        O  0.16061541  0.35080936  0.06358452    -0.72700
Cu275      Cu  0.23720394  0.37985522  0.06381340     1.04600
Cu276      Cu  0.20681573  0.32252330  0.06145083     1.04300
C277        C  0.15948547  0.38558796  0.06516355     0.93600
C278        C  0.28466874  0.31787686  0.06003309     0.92800
C279        C  0.21964840  0.35961253  0.02808838     0.84900
C280        C  0.22660899  0.33920211  0.09692239     0.91200
O281        O  0.49617646  0.01541605  0.15846023    -0.72500
O282        O  0.50157352  0.04380446  0.20936939    -0.73500
O283        O  0.05610809  0.06804658  0.19288711    -0.62100
O284        O  0.44546624  0.03810903  0.18395962    -0.70600
O285        O  0.44845058  0.49303363  0.18938509    -0.70100
O286        O  0.06055530  0.48605066  0.19054917    -0.61400
O287        O  0.50539511  0.49641098  0.21491378    -0.73900
O288        O  0.50296786  0.48709918  0.16310835    -0.72700
Cu289      Cu  0.49981391  0.03219651  0.18361901     1.04600
Cu290      Cu  0.50422117  0.48971439  0.18911543     1.04300
C291        C  0.50220553  0.51597928  0.15352090     0.93600
C292        C  0.50833512  0.52813943  0.22151108     0.92800
C293        C  0.07814020  0.51592311  0.18729286     0.84900
C294        C  0.43172303  0.52384258  0.18845700     0.91200
O295        O  0.50350935  0.28005987  0.21667233    -0.72500
O296        O  0.50212900  0.27945617  0.16384565    -0.73500
O297        O  0.44913924  0.29637750  0.18996433    -0.62100
O298        O  0.04981475  0.29255996  0.18706903    -0.70600
O299        O  0.05040599  0.23199185  0.18534952    -0.70100
O300        O  0.43123852  0.23835329  0.18933386    -0.61400
O301        O  0.48658749  0.22060245  0.16487394    -0.73900
O302        O  0.48283101  0.22287581  0.21714037    -0.72700
Cu303      Cu  0.50327704  0.28209641  0.19016128     1.04600
Cu304      Cu  0.48429143  0.22002975  0.19093592     1.04300
C305        C  0.49331439  0.25132514  0.22522413     0.93600
C306        C  0.49448185  0.24961020  0.15615293     0.92800
C307        C  0.42332221  0.27259539  0.18899999     0.84900
C308        C  0.06765805  0.26259747  0.18576141     0.91200
O309        O  0.25877954  0.45999510  0.21499365    -0.72500
O310        O  0.25344061  0.46803921  0.16295789    -0.73500
O311        O  0.31124698  0.46561578  0.18802887    -0.62100
O312        O  0.20060685  0.46152683  0.18990610    -0.70600
O313        O  0.20018802  0.06956078  0.19083039    -0.70100
O314        O  0.30801515  0.04126614  0.18840989    -0.61400
O315        O  0.25249872  0.06088051  0.16381422    -0.73900
O316        O  0.25704063  0.05128630  0.21519316    -0.72700
Cu317      Cu  0.25609948  0.46172174  0.18891840     1.04600
Cu318      Cu  0.25490543  0.05778322  0.18959333     1.04300
C319        C  0.25711149  0.48916054  0.22383140     0.93600
C320        C  0.25240285  0.49973876  0.15565339     0.92800
C321        C  0.32839170  0.49611951  0.18897559     0.84900
C322        C  0.18184104  0.49103404  0.19012126     0.91200
O323        O  0.23756873  0.27172290  0.15190672    -0.72500
O324        O  0.24303761  0.23713592  0.20263850    -0.73500
O325        O  0.18558479  0.25870225  0.17918380    -0.62100
O326        O  0.29511401  0.24767552  0.17567995    -0.70600
O327        O  0.30430333  0.30411888  0.18483545    -0.70100
O328        O  0.19194796  0.31698399  0.18614471    -0.61400
O329        O  0.24745612  0.29515897  0.21040258    -0.73900
O330        O  0.24736218  0.32879119  0.16010914    -0.72700
Cu331      Cu  0.24015793  0.25194808  0.17699612     1.04600
Cu332      Cu  0.24815758  0.31334233  0.18556668     1.04300
C333        C  0.24102399  0.30595859  0.14812036     0.93600
C334        C  0.24543025  0.26111405  0.21448884     0.92800
C335        C  0.17125426  0.28917557  0.18332290     0.84900
C336        C  0.31711418  0.27284478  0.18049552     0.91200
O337        O  0.03612220  0.46279905  0.92541074    -0.72500
O338        O  0.46792762  0.43484473  0.92737837    -0.73500
O339        O  0.00081100  0.41791501  0.90079334    -0.62100
O340        O  0.51886897  0.46522042  0.95092294    -0.70600
O341        O  0.45111261  0.94100479  0.95295410    -0.70100
O342        O  0.00472954  0.09246036  0.89962763    -0.61400
O343        O  0.40108623  0.92743993  0.92615084    -0.73900
O344        O  0.05894402  0.13294176  0.91903266    -0.72700
Cu345      Cu  0.00151264  0.42043045  0.92699072     1.04600
Cu346      Cu  0.01284823  0.10652202  0.92509746     1.04300
C347        C  0.02588665  0.49615367  0.92388037     0.93600
C348        C  0.43964915  0.45529775  0.92708713     0.92800
C349        C  0.97926599  0.43778204  0.89153375     0.84900
C350        C  0.50658252  0.49413091  0.95790979     0.91200
O351        O  0.51467942  0.24582117  0.95141610    -0.72500
O352        O  0.51577610  0.24757775  0.89958640    -0.73500
O353        O  0.46362223  0.26125799  0.92564676    -0.62100
O354        O  0.02107822  0.33788263  0.91766576    -0.70600
O355        O  0.07521999  0.31037980  0.92006364    -0.70100
O356        O  0.44517776  0.20314257  0.92572619    -0.61400
O357        O  0.49859447  0.18913282  0.89938811    -0.73900
O358        O  0.49726015  0.18755970  0.95203127    -0.72700
Cu359      Cu  0.51567859  0.24845625  0.92555037     1.04600
Cu360      Cu  0.49714144  0.18597215  0.92571459     1.04300
C361        C  0.50549418  0.21696596  0.95999548     0.93600
C362        C  0.50803800  0.21864297  0.89131390     0.92800
C363        C  0.43815005  0.23729531  0.92647826     0.84900
C364        C  0.05592828  0.33912674  0.91737872     0.91200
O365        O  0.27090885  0.02860636  0.89938814    -0.72500
O366        O  0.27046203  0.04206533  0.95087428    -0.73500
O367        O  0.29005507  0.98467706  0.92848079    -0.62100
O368        O  0.25129306  0.08614144  0.92146415    -0.70600
O369        O  0.16684200  0.49547132  0.92581609    -0.70100
O370        O  0.26274825  0.44543546  0.92866456    -0.61400
O371        O  0.21325534  0.47316188  0.95319282    -0.73900
O372        O  0.21623086  0.46856282  0.90132686    -0.72700
Cu373      Cu  0.27277434  0.03605977  0.92507519     1.04600
Cu374      Cu  0.21372643  0.46879986  0.92728911     1.04300
C375        C  0.23060287  0.49499471  0.89265036     0.93600
C376        C  0.22611987  0.50142010  0.96068307     0.92800
C377        C  0.29151061  0.46522001  0.92887287     0.84900
C378        C  0.16434073  0.53026147  0.92453826     0.91200
O379        O  0.26630818  0.28320408  0.92683680    -0.72500
O380        O  0.17861207  0.34216890  0.91416491    -0.73500
O381        O  0.23065986  0.30062297  0.89546447    -0.62100
O382        O  0.21422103  0.32365424  0.94582191    -0.70600
O383        O  0.24777222  0.37417016  0.94341995    -0.70100
O384        O  0.26409577  0.35122827  0.89227659    -0.61400
O385        O  0.21160892  0.39331011  0.91153228    -0.73900
O386        O  0.29916770  0.33442735  0.92412159    -0.72700
Cu387      Cu  0.22109233  0.31082207  0.92065248     1.04600
Cu388      Cu  0.25681141  0.36511218  0.91768849     1.04300
C389        C  0.29697012  0.30006376  0.92728507     0.93600
C390        C  0.18091621  0.37666713  0.91117301     0.92800
C391        C  0.25081309  0.32160382  0.88607352     0.84900
C392        C  0.22875193  0.35182160  0.95276635     0.91200
O393        O  0.07277410  0.47977480  0.59715109    -0.72500
O394        O  0.08743319  0.48480293  0.54484496    -0.73500
O395        O  0.91964948  0.06575075  0.57554912    -0.62100
O396        O  0.07951098  0.42757165  0.56996812    -0.70600
O397        O  0.58024781  0.42556613  0.56758037    -0.70100
O398        O  0.46645378  0.05888461  0.56870316    -0.61400
O399        O  0.53496242  0.45177884  0.54006166    -0.73900
O400        O  0.52583123  0.44486997  0.59200096    -0.72700
Cu401      Cu  0.08268507  0.48194561  0.57119008     1.04600
Cu402      Cu  0.52968673  0.44633004  0.56596448     1.04300
C403        C  0.53726045  0.47136664  0.60116355     0.93600
C404        C  0.54987174  0.47999688  0.53290419     0.92800
C405        C  0.50063659  0.06590836  0.56694983     0.84900
C406        C  0.60925427  0.44490116  0.56954935     0.91200
O407        O  0.55191176  0.23680844  0.56527085    -0.72500
O408        O  0.61500115  0.32330235  0.57430801    -0.73500
O409        O  0.58962948  0.28881459  0.54397559    -0.62100
O410        O  0.57617524  0.27136488  0.59537596    -0.70600
O411        O  0.97254960  0.20533150  0.59297004    -0.70100
O412        O  0.95955569  0.19889438  0.54128902    -0.61400
O413        O  0.00533526  0.23938636  0.56380819    -0.73900
O414        O  0.92559687  0.16479860  0.57068542    -0.72700
Cu415      Cu  0.58164419  0.28145353  0.56973880     1.04600
Cu416      Cu  0.96705913  0.20037980  0.56717855     1.04300
C417        C  0.56796662  0.20602205  0.56406444     0.93600
C418        C  0.64989722  0.32083331  0.57549379     0.92800
C419        C  0.61626895  0.27456878  0.53573816     0.84900
C420        C  0.59830981  0.25057393  0.60377364     0.91200
O421        O  0.28113958  0.52135799  0.54362487    -0.72500
O422        O  0.28624391  0.51595981  0.59568444    -0.73500
O423        O  0.32036046  0.47817156  0.56823732    -0.62100
O424        O  0.22920797  0.07036860  0.57006098    -0.70600
O425        O  0.18014355  0.03391278  0.56942858    -0.70100
O426        O  0.27260266  0.43997073  0.56802214    -0.61400
O427        O  0.23946815  0.47664423  0.59586862    -0.73900
O428        O  0.23252120  0.48445957  0.54418930    -0.72700
Cu429      Cu  0.28559265  0.52001366  0.56965697     1.04600
Cu430      Cu  0.23470526  0.47883899  0.57003888     1.04300
C431        C  0.25550838  0.50428528  0.53575266     0.93600
C432        C  0.26314734  0.49582369  0.60388890     0.92800
C433        C  0.30718035  0.44591436  0.56747429     0.84900
C434        C  0.19445016  0.06575854  0.57000892     0.91200
O435        O  0.27916088  0.23281081  0.58983853    -0.72500
O436        O  0.27311358  0.23933074  0.53743021    -0.73500
O437        O  0.31476470  0.27501892  0.56332098    -0.62100
O438        O  0.23751885  0.19725769  0.56396577    -0.70600
O439        O  0.19247195  0.23769636  0.56668015    -0.70100
O440        O  0.26928242  0.31541858  0.56419443    -0.61400
O441        O  0.22648370  0.27794219  0.53914895    -0.73900
O442        O  0.23538840  0.27465463  0.59165197    -0.72700
Cu443      Cu  0.27761024  0.23456757  0.56355181     1.04600
Cu444      Cu  0.22946133  0.27802638  0.56545538     1.04300
C445        C  0.25823859  0.25270771  0.59897253     0.93600
C446        C  0.24868638  0.25934556  0.53002121     0.92800
C447        C  0.30346797  0.30796194  0.56355920     0.84900
C448        C  0.20353149  0.20478286  0.56573229     0.91200
C449        C  0.33725203  0.39272561  0.58056832    -0.13000
C450        C  0.33091182  0.41433806  0.56570500     0.09200
C451        C  0.33173625  0.39825744  0.54941813    -0.13000
C452        C  0.33065021  0.36021241  0.54828711    -0.13000
C453        C  0.32897933  0.33867968  0.56345849     0.09200
C454        C  0.33639641  0.35465405  0.57942781    -0.13000
H455        H  0.33640418  0.40485131  0.59324081     0.13200
H456        H  0.32661665  0.41471509  0.53784341     0.13200
H457        H  0.32467452  0.34821018  0.53587552     0.13200
H458        H  0.33489611  0.33830569  0.59126018     0.13200
C459        C  0.17223484  0.11921864  0.58500274    -0.13000
C460        C  0.17197358  0.09855844  0.56992971     0.09200
C461        C  0.16682362  0.11619247  0.55384820    -0.13000
C462        C  0.17028235  0.15420093  0.55253664    -0.13000
C463        C  0.17803083  0.17422636  0.56737276     0.09200
C464        C  0.17518759  0.15725490  0.58371678    -0.13000
H465        H  0.17657719  0.10591722  0.59749399     0.13200
H466        H  0.16693369  0.10051339  0.54208877     0.13200
H467        H  0.17276515  0.16700335  0.53982770     0.13200
H468        H  0.18149983  0.17244499  0.59526715     0.13200
C469        C  0.65951383  0.40834749  0.55810091    -0.13000
C470        C  0.64376201  0.42556180  0.57227831     0.09200
C471        C  0.05821775  0.34728300  0.57507238    -0.13000
C472        C  0.04563404  0.31122222  0.57368472    -0.13000
C473        C  0.67039643  0.35509587  0.57633950     0.09200
C474        C  0.67420830  0.37328801  0.56028947    -0.13000
H475        H  0.65489551  0.41902064  0.54510219     0.13200
H476        H  0.07352148  0.35517164  0.58645290     0.13200
H477        H  0.05080133  0.29180068  0.58418083     0.13200
H478        H  0.68001617  0.35775459  0.54881697     0.13200
C479        C  0.84694545  0.08974730  0.56114910    -0.13000
C480        C  0.51401534  0.10329610  0.56397938     0.09200
C481        C  0.49488519  0.13393090  0.56978927    -0.13000
C482        C  0.51131693  0.16859809  0.56870821    -0.13000
C483        C  0.54678223  0.17245732  0.56181522     0.09200
C484        C  0.85264892  0.12757210  0.55984018    -0.13000
H485        H  0.84526438  0.07448698  0.54929042     0.13200
H486        H  0.46839654  0.13079445  0.57595610     0.13200
H487        H  0.49744105  0.19177963  0.57423088     0.13200
H488        H  0.85419558  0.14049682  0.54712410     0.13200
C489        C  0.37026093  0.22903155  0.92409590    -0.13000
C490        C  0.40075400  0.25003016  0.92898380     0.09200
C491        C  0.39571308  0.28466768  0.93610428    -0.13000
C492        C  0.36103304  0.29961914  0.93690004    -0.13000
C493        C  0.33086783  0.28019623  0.93056142     0.09200
C494        C  0.33520574  0.24418577  0.92486443    -0.13000
H495        H  0.37371470  0.20196924  0.91884737     0.13200
H496        H  0.41878766  0.30084670  0.94051982     0.13200
H497        H  0.35806023  0.32722697  0.94160935     0.13200
H498        H  0.31203963  0.22888749  0.91991237     0.13200
C499        C  0.09014829  0.37483003  0.89615983    -0.13000
C500        C  0.07524831  0.37291248  0.91284340     0.09200
C501        C  0.09240077  0.39191385  0.92619581    -0.13000
C502        C  0.12818613  0.40476680  0.92386059    -0.13000
C503        C  0.14671297  0.39648921  0.90856852     0.09200
C504        C  0.12621744  0.38683469  0.89398830    -0.13000
H505        H  0.07697015  0.36052154  0.88565299     0.13200
H506        H  0.08103663  0.39099108  0.93912597     0.13200
H507        H  0.14355133  0.41310026  0.93516096     0.13200
H508        H  0.13998860  0.38099112  0.88196079     0.13200
C509        C  0.33740938  0.89191235  0.94441537    -0.13000
C510        C  0.40309130  0.44030470  0.92953718     0.09200
C511        C  0.38230944  0.43173177  0.91487691    -0.13000
C512        C  0.34424560  0.43555156  0.91522327    -0.13000
C513        C  0.32731801  0.44816363  0.93018932     0.09200
C514        C  0.30395608  0.91007103  0.94541978    -0.13000
H515        H  0.35404018  0.88921022  0.95602088     0.13200
H516        H  0.39569651  0.42660223  0.90267811     0.13200
H517        H  0.32865843  0.43268941  0.90336227     0.13200
H518        H  0.29551181  0.92085179  0.95773571     0.13200
C519        C  0.10924819  0.54102619  0.90754596    -0.13000
C520        C  0.12754066  0.54520888  0.92336061     0.09200
C521        C  0.18142086  0.13926799  0.93164114    -0.13000
C522        C  0.14345355  0.14395963  0.93135182    -0.13000
C523        C  0.05418172  0.52428608  0.92309473     0.09200
C524        C  0.07253668  0.53019347  0.90741858    -0.13000
H525        H  0.12468557  0.53997462  0.89561451     0.13200
H526        H  0.19536778  0.13935097  0.94404318     0.13200
H527        H  0.12932900  0.14838820  0.94343804     0.13200
H528        H  0.06023762  0.52155125  0.89537878     0.13200
C529        C  0.38421717  0.28525483  0.18746346    -0.16000
C530        C  0.35712217  0.26345032  0.18145819    -0.31200
H531        H  0.37785142  0.31314417  0.19100265     0.13000
H532        H  0.36435506  0.23599050  0.17755040     0.13600
C533        C  0.10846255  0.26214291  0.18441585    -0.16000
C534        C  0.13049066  0.29206357  0.18496742    -0.31200
H535        H  0.12091650  0.23543263  0.18279325     0.13000
H536        H  0.11856664  0.31889052  0.18690362     0.13600
C537        C  0.39080428  0.52562031  0.18883463    -0.16000
C538        C  0.36930172  0.49545687  0.18872027    -0.31200
H539        H  0.37669962  0.04982342  0.18679917     0.13000
H540        H  0.38220496  0.46869077  0.18830437     0.13600
C541        C  0.11904785  0.51752537  0.18716457    -0.16000
C542        C  0.14095523  0.48833655  0.19004085    -0.31200
H543        H  0.13159006  0.54418662  0.18476404     0.13000
H544        H  0.12849835  0.08295372  0.19241443     0.13600
C545        C  0.24262317  0.38549116  0.99916150    -0.13000
C546        C  0.21947448  0.36154136  0.00866409     0.09200
C547        C  0.19761895  0.33676553  0.99937734    -0.13000
C548        C  0.19986269  0.33475665  0.98133303    -0.13000
C549        C  0.22407932  0.35742858  0.97182445     0.09200
C550        C  0.24490281  0.38345819  0.98095622    -0.13000
H551        H  0.25986873  0.40493324  0.00582833     0.13200
H552        H  0.17917894  0.31810129  0.00612636     0.13200
H553        H  0.18306775  0.31465091  0.97485156     0.13200
H554        H  0.26378585  0.40148760  0.97410103     0.13200
C555        C  0.23677027  0.31929221  0.13021728    -0.12900
C556        C  0.23214334  0.33006972  0.11528011    -0.14400
C557        C  0.27243652  0.05198642  0.98731538    -0.13000
C558        C  0.22579616  0.50339786  0.97975928     0.09200
C559        C  0.20676030  0.47716868  0.98983438    -0.13000
C560        C  0.20704348  0.47899558  0.00787899    -0.13000
C561        C  0.22646376  0.50702893  0.01619779     0.09200
C562        C  0.27179223  0.05672757  0.00524219    -0.13000
H563        H  0.29719793  0.05906482  0.98028833     0.13200
H564        H  0.19171686  0.45517064  0.98378644     0.13200
H565        H  0.19230054  0.45825782  0.01530661     0.13200
H566        H  0.29613972  0.06709117  0.01158852     0.13200
C567        C  0.24940978  0.50293635  0.13716931    -0.12900
C568        C  0.24570612  0.50564316  0.12169162    -0.14400
C569        C  0.38626772  0.30768172  0.05792059    -0.13000
C570        C  0.39086253  0.27130790  0.06370208     0.09200
C571        C  0.35999587  0.24902198  0.06673500    -0.13000
C572        C  0.32489108  0.26360404  0.06472911    -0.13000
C573        C  0.32059025  0.30050457  0.05970322     0.09200
C574        C  0.35145965  0.32213982  0.05594471    -0.13000
H575        H  0.40960258  0.32528203  0.05514239     0.13200
H576        H  0.36298658  0.22078158  0.07106259     0.13200
H577        H  0.30129299  0.24655947  0.06776845     0.13200
H578        H  0.34875807  0.35059930  0.05188216     0.13200
C579        C  0.06695036  0.38953374  0.05079696    -0.13000
C580        C  0.05171679  0.37756831  0.06652228     0.09200
C581        C  0.06893433  0.38697995  0.08205282    -0.13000
C582        C  0.10510636  0.39955419  0.08172982    -0.13000
C583        C  0.12343413  0.40243400  0.06587960     0.09200
C584        C  0.10303181  0.40230453  0.05048137    -0.13000
H585        H  0.05396636  0.38238726  0.03868907     0.13200
H586        H  0.05734854  0.37801245  0.09431684     0.13200
H587        H  0.12049521  0.39982394  0.09374560     0.13200
H588        H  0.11683717  0.40471424  0.03811688     0.13200
C589        C  0.50916980  0.25425829  0.00542017    -0.13000
C590        C  0.49909728  0.22373123  0.01572343     0.09200
C591        C  0.04465477  0.26292776  0.00392688    -0.13000
C592        C  0.04814882  0.26417536  0.98585443    -0.13000
C593        C  0.50390884  0.21849967  0.97920458     0.09200
C594        C  0.51153442  0.25168695  0.98746512    -0.13000
H595        H  0.51517386  0.28038440  0.01122335     0.13200
H596        H  0.06536954  0.24872031  0.01153725     0.13200
H597        H  0.07132944  0.25067765  0.98005007     0.13200
H598        H  0.51916051  0.27598491  0.98003462     0.13200
C599        C  0.49451274  0.24547732  0.12179666    -0.12900
C600        C  0.49467083  0.24827226  0.13742415    -0.14400
C601        C  0.38608616  0.46260850  0.04811234    -0.13000
C602        C  0.40585481  0.45442092  0.06323861     0.09200
C603        C  0.33415596  0.92151725  0.08841489    -0.13000
C604        C  0.29998536  0.93830283  0.08689342    -0.13000
C605        C  0.32965359  0.45356198  0.06384069     0.09200
C606        C  0.34799741  0.46205527  0.04839665    -0.13000
H607        H  0.39992813  0.47374932  0.03678067     0.13200
H608        H  0.34755968  0.92048868  0.10094759     0.13200
H609        H  0.28776433  0.94979656  0.09832735     0.13200
H610        H  0.33305157  0.47297567  0.03730750     0.13200
C611        C  0.14321916  0.15694945  0.08985829    -0.13000
C612        C  0.06253250  0.55758436  0.06655129     0.09200
C613        C  0.08356256  0.56261585  0.05158463    -0.13000
C614        C  0.12150508  0.56641945  0.05302869    -0.13000
C615        C  0.13805072  0.56470781  0.06941202     0.09200
C616        C  0.18118908  0.15408441  0.08815621    -0.13000
H617        H  0.13089590  0.15126415  0.10236165     0.13200
H618        H  0.07170933  0.55742011  0.03899120     0.13200
H619        H  0.13807074  0.56447582  0.04147059     0.13200
H620        H  0.19696405  0.14564727  0.09944989     0.13200
C621        C  0.02236178  0.12621102  0.00636402    -0.13000
C622        C  0.50932280  0.50250702  0.01345995     0.09200
C623        C  0.52589078  0.47277861  0.00529672    -0.13000
C624        C  0.52536027  0.47032317  0.98727207    -0.13000
C625        C  0.50830361  0.49756946  0.97697535     0.09200
C626        C  0.02263243  0.12445524  0.98815591    -0.13000
H627        H  0.00662483  0.14757462  0.01237627     0.13200
H628        H  0.53893112  0.45113393  0.01284116     0.13200
H629        H  0.53806675  0.44685816  0.98141652     0.13200
H630        H  0.00701909  0.14444669  0.98070080     0.13200
C631        C  0.50072645  0.51269203  0.13500610    -0.12900
C632        C  0.50017611  0.51035816  0.11943832    -0.14400
C633        C  0.20989382  0.26219443  0.48414001    -0.13000
C634        C  0.24194647  0.26244179  0.47405216     0.09200
C635        C  0.27613735  0.26211103  0.48253395    -0.13000
C636        C  0.27825271  0.26070040  0.50067590    -0.13000
C637        C  0.24624917  0.26091231  0.51077991     0.09200
C638        C  0.21203413  0.26212372  0.50230573    -0.13000
H639        H  0.18317737  0.26246032  0.47795622     0.13200
H640        H  0.30127276  0.26202961  0.47510517     0.13200
H641        H  0.30498276  0.25987255  0.50683807     0.13200
H642        H  0.18692015  0.26213772  0.50974947     0.13200
C643        C  0.16209421  0.35924077  0.43735158    -0.13000
C644        C  0.16679891  0.34509974  0.42077945     0.09200
C645        C  0.16603267  0.36884637  0.40634317    -0.13000
C646        C  0.16858695  0.40649345  0.40869353    -0.13000
C647        C  0.17202528  0.42002538  0.42544902     0.09200
C648        C  0.16550148  0.39687891  0.43974706    -0.13000
H649        H  0.16279230  0.34111791  0.44862093     0.13200
H650        H  0.16988358  0.35828386  0.39347927     0.13200
H651        H  0.17376919  0.42422493  0.39755006     0.13200
H652        H  0.16823485  0.40708940  0.45275164     0.13200
C653        C  0.31813222  0.11752649  0.40875351    -0.13000
C654        C  0.31329984  0.09950945  0.42474462     0.09200
C655        C  0.31481218  0.11951750  0.43999673    -0.13000
C656        C  0.31286405  0.15758724  0.43905256    -0.13000
C657        C  0.30978418  0.17520036  0.42286887     0.09200
C658        C  0.31617048  0.15563630  0.40779700    -0.13000
H659        H  0.31672138  0.10229427  0.39687730     0.13200
H660        H  0.31079666  0.10585160  0.45242366     0.13200
H661        H  0.30764375  0.17248202  0.45077625     0.13200
H662        H  0.31352082  0.16900046  0.39521706     0.13200
C663        C  0.28087557  0.50753402  0.48841899    -0.13000
C664        C  0.24627202  0.50949493  0.48035660     0.09200
C665        C  0.27349981  0.01825918  0.48821590    -0.13000
C666        C  0.27299304  0.01910037  0.50630059    -0.13000
C667        C  0.25236156  0.50727131  0.51675525     0.09200
C668        C  0.28392200  0.50701566  0.50645349    -0.13000
H669        H  0.30563342  0.50644952  0.48074129     0.13200
H670        H  0.29962698  0.01891881  0.48158157     0.13200
H671        H  0.29876532  0.01998693  0.51330656     0.13200
H672        H  0.31087704  0.50527595  0.51235896     0.13200
C673        C  0.95742845  0.19498526  0.48650797    -0.13000
C674        C  0.61733627  0.28613320  0.47946416     0.09200
C675        C  0.59140817  0.30446039  0.48958671    -0.13000
C676        C  0.59192623  0.30142266  0.50769920    -0.13000
C677        C  0.61836807  0.27989708  0.51643872     0.09200
C678        C  0.95583012  0.19353154  0.50464154    -0.13000
H679        H  0.97359868  0.17469787  0.47995545     0.13200
H680        H  0.56998811  0.32069183  0.48348641     0.13200
H681        H  0.57092024  0.31546205  0.51485876     0.13200
H682        H  0.97086352  0.17217424  0.51148709     0.13200
C683        C  0.06864559  0.35525499  0.41664637    -0.13000
C684        C  0.65345202  0.45550887  0.42045643     0.09200
C685        C  0.66365628  0.43720044  0.43582874    -0.13000
C686        C  0.66574586  0.39900403  0.43600393    -0.13000
C687        C  0.66031812  0.38009291  0.42059157     0.09200
C688        C  0.05548900  0.31928420  0.41772488    -0.13000
H689        H  0.08111006  0.36523293  0.40475287     0.13200
H690        H  0.66096324  0.45080633  0.44809043     0.13200
H691        H  0.66567516  0.38434682  0.44833115     0.13200
H692        H  0.05760541  0.30202214  0.40653434     0.13200
C693        C  0.85390065  0.10554412  0.43118699    -0.13000
C694        C  0.51742076  0.11830369  0.43133901     0.09200
C695        C  0.49594528  0.14858765  0.42635970    -0.13000
C696        C  0.51077177  0.18388843  0.42711104    -0.13000
C697        C  0.54702603  0.18878325  0.43281978     0.09200
C698        C  0.85696098  0.14367417  0.43000250    -0.13000
H699        H  0.85011402  0.09296474  0.44386725     0.13200
H700        H  0.46858875  0.14485375  0.42114992     0.13200
H701        H  0.49481133  0.20694803  0.42233013     0.13200
H702        H  0.85478747  0.15932826  0.44171831     0.13200
C703        C  0.44795965  0.01756616  0.48799877    -0.13000
C704        C  0.55422722  0.48962918  0.47710628     0.09200
C705        C  0.09601683  0.48973792  0.48891868    -0.13000
C706        C  0.09514441  0.48963172  0.50714094    -0.13000
C707        C  0.55212730  0.48302735  0.51372105     0.09200
C708        C  0.44724473  0.01537583  0.50614201    -0.13000
H709        H  0.42542406  0.03075491  0.48119734     0.13200
H710        H  0.12224763  0.49086901  0.48240940     0.13200
H711        H  0.12072448  0.49064380  0.51428597     0.13200
H712        H  0.42418441  0.02696706  0.51289362     0.13200
C713        C  0.22623229  0.26710199  0.24493500    -0.16000
C714        C  0.24647581  0.24969098  0.23308335    -0.31200
H715        H  0.20681391  0.28779448  0.24048766     0.13000
H716        H  0.26358881  0.22668578  0.23702277     0.13600
C717        C  0.23543345  0.25425537  0.36727414    -0.12900
C718        C  0.23490275  0.25291055  0.35158887    -0.14400
C719        C  0.22092920  0.39244922  0.30323878    -0.16000
C720        C  0.24778012  0.36767292  0.30087102    -0.31200
H721        H  0.19258762  0.38321364  0.30393702     0.13000
H722        H  0.27607099  0.37702610  0.30002722     0.16800
C723        C  0.24420599  0.11827318  0.30060209    -0.16000
C724        C  0.21585631  0.14191831  0.29921366    -0.31200
H725        H  0.27201461  0.12912744  0.30060426     0.13000
H726        H  0.18792816  0.13140396  0.29921013     0.13600
C727        C  0.23964366  0.50999379  0.25264268    -0.16000
C728        C  0.25837988  0.48653661  0.24288461    -0.31200
H729        H  0.20479019  0.98739812  0.24586983     0.13000
H730        H  0.27338758  0.46405026  0.24898053     0.13600
C731        C  0.23864390  0.50472562  0.37429289    -0.12900
C732        C  0.23875718  0.50330075  0.35868589    -0.14400
C733        C  0.51876729  0.26931843  0.25376259    -0.16000
C734        C  0.49399183  0.25014941  0.24459130    -0.31200
H735        H  0.03212079  0.29101403  0.24608058     0.13000
H736        H  0.47637065  0.23050136  0.25130438     0.13600
C737        C  0.56654023  0.26885809  0.35892610    -0.12900
C738        C  0.57684832  0.27374567  0.37380244    -0.14400
C739        C  0.54917994  0.40326876  0.30404695    -0.16000
C740        C  0.52452334  0.37638587  0.30736181    -0.31200
H741        H  0.05015063  0.38850542  0.30278626     0.13000
H742        H  0.49642383  0.38402825  0.31021694     0.13600
C743        C  0.51487179  0.12799032  0.30432716    -0.16000
C744        C  0.54560199  0.14916677  0.30494568    -0.31200
H745        H  0.48832619  0.14142107  0.30441500     0.13000
H746        H  0.03535906  0.14255650  0.30600201     0.13600
C747        C  0.49759507  0.50778329  0.25171761    -0.16000
C748        C  0.51250754  0.53180463  0.24037395    -0.31200
H749        H  0.53698997  0.98570368  0.24679862     0.13000
H750        H  0.03664116  0.55501764  0.24503357     0.13600
C751        C  0.54478221  0.51308082  0.37125493    -0.12900
C752        C  0.53938175  0.51498430  0.35584343    -0.14400
C753        C  0.26535182  0.30003743  0.85390600    -0.12900
C754        C  0.25914219  0.31084946  0.86843840    -0.14400
C755        C  0.23223849  0.49308374  0.87416416    -0.12900
C756        C  0.23386466  0.49116301  0.85864199    -0.14400
C757        C  0.41087426  0.23998606  0.80308078    -0.16000
C758        C  0.39034118  0.27101796  0.80296983    -0.31200
H759        H  0.39675522  0.21371330  0.80354833     0.13000
H760        H  0.40387510  0.29752493  0.80191937     0.13600
C761        C  0.13598055  0.28082259  0.79975154    -0.16000
C762        C  0.16138386  0.25432493  0.80211671    -0.31200
H763        H  0.14495408  0.30906388  0.79794866     0.13000
H764        H  0.15199153  0.22631764  0.80430550     0.13600
C765        C  0.51093667  0.21952778  0.87266651    -0.12900
C766        C  0.51490189  0.22205875  0.85712857    -0.14400
C767        C  0.37297526  0.96357635  0.80458593    -0.16000
C768        C  0.35469501  0.99556800  0.80621568    -0.31200
H769        H  0.36211665  0.43409903  0.80761062     0.13000
H770        H  0.37047969  0.02055633  0.80797500     0.13600
C771        C  0.10353328  0.00115249  0.80836737    -0.16000
C772        C  0.12788349  0.02859213  0.80553536    -0.31200
H773        H  0.11693340  0.42073385  0.80702346     0.13000
H774        H  0.11798862  0.05645423  0.80375064     0.13600
C775        C  0.98097803  0.43634066  0.87282344    -0.12900
C776        C  0.98286255  0.43705826  0.85713698    -0.14400
C777        C  0.25646673  0.25111846  0.74025004    -0.16000
C778        C  0.27993173  0.23640745  0.75193698    -0.31200
H779        H  0.23444693  0.26842900  0.74480057     0.13000
H780        H  0.30014403  0.21651514  0.74795385     0.13600
C781        C  0.26096726  0.24750950  0.63349523    -0.12900
C782        C  0.26012875  0.24999753  0.61776509    -0.14400
C783        C  0.26629936  0.35802998  0.68765310    -0.16000
C784        C  0.23702985  0.38047347  0.68825936    -0.31200
H785        H  0.29371014  0.36984050  0.68798720     0.13000
H786        H  0.20963554  0.36864592  0.68779673     0.13600
C787        C  0.22742914  0.10795918  0.68858674    -0.16000
C788        C  0.25756370  0.12967182  0.68815532    -0.31200
H789        H  0.20042996  0.12048119  0.68841250     0.13000
H790        H  0.28441344  0.11681203  0.68827069     0.13600
C791        C  0.22430766  0.99069724  0.74237818    -0.16000
C792        C  0.24478923  0.01262416  0.75224888    -0.31200
H793        H  0.20433074  0.51173639  0.74727910     0.13000
H794        H  0.26286194  0.03281571  0.74617979     0.13600
C795        C  0.25948164  0.49584501  0.63794834    -0.12900
C796        C  0.26269704  0.49560591  0.62244010    -0.14400
C797        C  0.52154382  0.21936255  0.73975717    -0.16000
C798        C  0.53738977  0.24170824  0.75130422    -0.31200
H799        H  0.50076199  0.19977280  0.74398227     0.13000
H800        H  0.99510114  0.28090396  0.74274801     0.13600
C801        C  0.58103271  0.23460932  0.63669875    -0.12900
C802        C  0.59033787  0.24141863  0.62183159    -0.14400
C803        C  0.51868922  0.35834932  0.68791507    -0.16000
C804        C  0.54949859  0.33803984  0.68965406    -0.31200
H805        H  0.49261154  0.34443833  0.68599570     0.13000
H806        H  0.04403497  0.36134610  0.68416561     0.13600
C807        C  0.54738597  0.10883586  0.68870150    -0.16000
C808        C  0.51517878  0.09011963  0.68940120    -0.31200
H809        H  0.02471590  0.11133543  0.68441145     0.13000
H810        H  0.48989497  0.10579880  0.68925164     0.13600
C811        C  0.99927441  0.99432302  0.74649836    -0.16000
C812        C  0.98139086  0.97587518  0.75924135    -0.31200
H813        H  0.01965090  0.01471722  0.75000548     0.13000
H814        H  0.46999783  0.43060670  0.74461628     0.13600
C815        C  0.53148129  0.47038205  0.61960085    -0.12900
C816        C  0.52631059  0.47081445  0.63504202    -0.14400
O817        O  0.45807202  0.92657689  0.69141134    -0.72500
O818        O  0.48056686  0.52711125  0.68618593    -0.73500
O819        O  0.46254773  0.98473224  0.66557736    -0.62100
O820        O  0.47871468  0.46993721  0.71234169    -0.70600
O821        O  0.02325216  0.48503876  0.71688283    -0.70100
O822        O  0.00259897  0.99106583  0.66526938    -0.61400
O823        O  0.03835206  0.54388681  0.69170206    -0.73900
O824        O  0.01695953  0.93565255  0.69170808    -0.72700
Cu825      Cu  0.48183376  0.47096295  0.68615180     1.04600
Cu826      Cu  0.01329829  0.99147561  0.69108704     1.04300
C827        C  0.98847412  0.91523319  0.69337007     0.93600
C828        C  0.51023779  0.54596225  0.68694094     0.92800
C829        C  0.49087419  0.98223870  0.65599065     0.84900
C830        C  0.99044184  0.48831563  0.72237130     0.91200
O831        O  0.45458136  0.66890408  0.69323915    -0.72500
O832        O  0.46300524  0.78214280  0.69112895    -0.73500
O833        O  0.44189643  0.72458318  0.66712155    -0.62100
O834        O  0.47305583  0.72577711  0.71769983    -0.70600
O835        O  0.04628321  0.73944381  0.72136339    -0.70100
O836        O  0.07453741  0.74864954  0.67037209    -0.61400
O837        O  0.05601728  0.79909817  0.69676885    -0.73900
O838        O  0.06436117  0.68755313  0.69484057    -0.72700
Cu839      Cu  0.45610377  0.72565768  0.69256523     1.04600
Cu840      Cu  0.06232966  0.74356948  0.69607516     1.04300
C841        C  0.48244724  0.64929452  0.68926167     0.93600
C842        C  0.49432340  0.79637710  0.68726757     0.92800
C843        C  0.46564256  0.72099820  0.65516514     0.84900
C844        C  0.50668822  0.72121428  0.72197837     0.91200
O845        O  0.26657985  0.99545701  0.66437099    -0.72500
O846        O  0.25888792  0.99494342  0.71630474    -0.73500
O847        O  0.26516502  0.93895910  0.69093111    -0.62100
O848        O  0.27408370  0.54962018  0.69259816    -0.70600
O849        O  0.21407660  0.55062528  0.68780900    -0.70100
O850        O  0.20464219  0.93659564  0.68821652    -0.61400
O851        O  0.19829076  0.98985939  0.71424133    -0.73900
O852        O  0.20575250  0.99414557  0.66246510    -0.72700
Cu853      Cu  0.26495246  0.99505285  0.69043139     1.04600
Cu854      Cu  0.20008205  0.99205240  0.68829899     1.04300
C855        C  0.23722012  0.99556744  0.65530027     0.93600
C856        C  0.22736430  0.99198967  0.72341262     0.92800
C857        C  0.23548598  0.92017353  0.68978784     0.84900
C858        C  0.24425531  0.56769793  0.69027501     0.91200
O859        O  0.24027873  0.68780988  0.69196493    -0.72500
O860        O  0.23681136  0.79956675  0.69273865    -0.73500
O861        O  0.23554662  0.74593448  0.66620237    -0.62100
O862        O  0.24148445  0.74165155  0.71876124    -0.70600
O863        O  0.30221218  0.74097970  0.71705874    -0.70100
O864        O  0.29628180  0.74913528  0.66479873    -0.61400
O865        O  0.29758064  0.80105296  0.69207545    -0.73900
O866        O  0.30086799  0.69000688  0.68981191    -0.72700
Cu867      Cu  0.23640591  0.74370227  0.69247947     1.04600
Cu868      Cu  0.30128485  0.74549003  0.69090071     1.04300
C869        C  0.27115730  0.67131817  0.69076648     0.93600
C870        C  0.26684739  0.81792041  0.69237259     0.92800
C871        C  0.26497513  0.74858826  0.65729708     0.84900
C872        C  0.27295012  0.73944501  0.72612488     0.91200
O873        O  0.98517049  0.96162769  0.78982107    -0.72500
O874        O  0.99396783  0.99353726  0.84034403    -0.73500
O875        O  0.43073571  0.93157560  0.80248969    -0.62100
O876        O  0.04440253  0.97625266  0.81343216    -0.70600
O877        O  0.04464890  0.47795754  0.80611960    -0.70100
O878        O  0.43322172  0.49267786  0.80334004    -0.61400
O879        O  0.98656388  0.47209938  0.83127179    -0.73900
O880        O  0.99039549  0.48331770  0.77914012    -0.72700
Cu881      Cu  0.98949849  0.97499705  0.81540713     1.04600
Cu882      Cu  0.98859091  0.47960421  0.80527052     1.04300
C883        C  0.99335611  0.45477431  0.76993661     0.93600
C884        C  0.98522666  0.44027250  0.83844570     0.92800
C885        C  0.41536245  0.46252309  0.80544884     0.84900
C886        C  0.06246280  0.44773602  0.80576225     0.91200
O887        O  0.06279391  0.72464831  0.81376080    -0.72500
O888        O  0.45713027  0.67089397  0.80267139    -0.73500
O889        O  0.51231625  0.69163326  0.77744305    -0.62100
O890        O  0.51380164  0.66420176  0.82882012    -0.70600
O891        O  0.50709273  0.72251428  0.83558270    -0.70100
O892        O  0.50136745  0.74947396  0.78381651    -0.61400
O893        O  0.44948155  0.72870240  0.80999625    -0.73900
O894        O  0.06359509  0.78294060  0.80519843    -0.72700
Cu895      Cu  0.51331766  0.67644037  0.80298941     1.04600
Cu896      Cu  0.50431840  0.73856244  0.80994712     1.04300
C897        C  0.08085087  0.75336397  0.80932016     0.93600
C898        C  0.43572323  0.69752672  0.80624514     0.92800
C899        C  0.50549152  0.72458059  0.77249624     0.84900
C900        C  0.51075262  0.68879270  0.84027164     0.91200
O901        O  0.23589840  0.98167288  0.77941905    -0.72500
O902        O  0.23746968  0.98001848  0.83148844    -0.73500
O903        O  0.18138755  0.98938108  0.80577121    -0.62100
O904        O  0.29222187  0.97212859  0.80523264    -0.70600
O905        O  0.29215029  0.51648220  0.80523055    -0.70100
O906        O  0.18135459  0.50949037  0.80440968    -0.61400
O907        O  0.23532311  0.51727736  0.83070200    -0.73900
O908        O  0.23770502  0.50818959  0.77899968    -0.72700
Cu909      Cu  0.23635441  0.97867575  0.80546877     1.04600
Cu910      Cu  0.23649806  0.51491584  0.80474550     1.04300
C911        C  0.24151508  0.47660709  0.77238585     0.93600
C912        C  0.23573858  0.48825924  0.84019201     0.92800
C913        C  0.16507724  0.47844468  0.80546945     0.84900
C914        C  0.31156091  0.48748944  0.80685719     0.91200
O915        O  0.25779964  0.70431796  0.77997364    -0.72500
O916        O  0.25514392  0.67258061  0.83039237    -0.73500
O917        O  0.19999860  0.69100470  0.80497666    -0.62100
O918        O  0.31294398  0.68777257  0.80563567    -0.70600
O919        O  0.31220822  0.74620465  0.81286477    -0.70100
O920        O  0.20120520  0.74915971  0.81267146    -0.61400
O921        O  0.25599473  0.73071790  0.83822805    -0.73900
O922        O  0.25645341  0.76274292  0.78729019    -0.72700
Cu923      Cu  0.25641564  0.68688972  0.80497770     1.04600
Cu924      Cu  0.25666124  0.74916153  0.81303836     1.04300
C925        C  0.25706432  0.73829200  0.77563071     0.93600
C926        C  0.25491941  0.69646860  0.84223393     0.92800
C927        C  0.18294235  0.72056641  0.80871914     0.84900
C928        C  0.33024967  0.71730908  0.80932625     0.91200
O929        O  0.02309221  0.02049441  0.33509445    -0.72500
O930        O  0.03759515  0.02650308  0.28296112    -0.73500
O931        O  0.04975309  0.57235806  0.30465354    -0.62100
O932        O  0.04263593  0.96869510  0.30887616    -0.70600
O933        O  0.47537128  0.95823294  0.30381682    -0.70100
O934        O  0.47304093  0.55734770  0.30624414    -0.61400
O935        O  0.48371025  0.01461581  0.27708429    -0.73900
O936        O  0.47366778  0.01537114  0.32907646    -0.72700
Cu937      Cu  0.03275170  0.02322094  0.30912008     1.04600
Cu938      Cu  0.47684225  0.01485631  0.30305095     1.04300
C939        C  0.50228848  0.01552691  0.33864315     0.93600
C940        C  0.51539429  0.01126843  0.27027349     0.92800
C941        C  0.49678847  0.58289875  0.30411313     0.84900
C942        C  0.50491826  0.93968002  0.30602019     0.91200
O943        O  0.04985803  0.77184718  0.28008886    -0.72500
O944        O  0.06244862  0.77300470  0.33167880    -0.73500
O945        O  0.06474071  0.71615835  0.30604296    -0.62100
O946        O  0.04539303  0.82704274  0.30566874    -0.70600
O947        O  0.45167425  0.81376503  0.30344955    -0.70100
O948        O  0.46699612  0.70159679  0.30264275    -0.61400
O949        O  0.44470857  0.75270212  0.32838121    -0.73900
O950        O  0.47047809  0.76098842  0.27753997    -0.72700
Cu951      Cu  0.05768645  0.77218163  0.30577289     1.04600
Cu952      Cu  0.45637759  0.75721974  0.30281401     1.04300
C953        C  0.50385282  0.76371815  0.27268624     0.93600
C954        C  0.46940171  0.75417492  0.34009624     0.92800
C955        C  0.49925601  0.68925704  0.30608820     0.84900
C956        C  0.47934531  0.83470982  0.30647864     0.91200
O957        O  0.26318207  0.00199600  0.27780242    -0.72500
O958        O  0.27077139  0.00434651  0.32971125    -0.73500
O959        O  0.26488012  0.94754317  0.30464794    -0.62100
O960        O  0.27832404  0.55472839  0.30632978    -0.70600
O961        O  0.21830512  0.56439913  0.30662916    -0.70100
O962        O  0.20434640  0.95064152  0.30702273    -0.61400
O963        O  0.21011251  0.00886013  0.33123451    -0.73900
O964        O  0.20237168  0.00285420  0.27957521    -0.72700
Cu965      Cu  0.26921587  0.00297683  0.30362612     1.04600
Cu966      Cu  0.20432289  0.00618937  0.30539519     1.04300
C967        C  0.23156912  0.00171439  0.27056966     0.93600
C968        C  0.24148406  0.00725428  0.33859944     0.92800
C969        C  0.23365444  0.93160323  0.30592331     0.84900
C970        C  0.25118254  0.57686174  0.30667769     0.91200
O971        O  0.22287330  0.81349032  0.30238731    -0.72500
O972        O  0.21014877  0.70365091  0.30403611    -0.73500
O973        O  0.21057585  0.76056207  0.32914099    -0.62100
O974        O  0.22346084  0.75688614  0.27699486    -0.70600
O975        O  0.28304409  0.74745452  0.28097108    -0.70100
O976        O  0.27081472  0.75454919  0.33244523    -0.61400
O977        O  0.26988943  0.69595389  0.30817706    -0.73900
O978        O  0.28305708  0.80682964  0.30519228    -0.72700
Cu979      Cu  0.21469243  0.75889356  0.30298921     1.04600
Cu980      Cu  0.27879658  0.75106841  0.30680179     1.04300
C981        C  0.25486773  0.82759103  0.30381061     0.93600
C982        C  0.23765208  0.68243115  0.30632641     0.92800
C983        C  0.23895560  0.75865541  0.33889849     0.84900
C984        C  0.25536551  0.75045045  0.27088506     0.91200
O985        O  0.98381802  0.05047055  0.40169063    -0.72500
O986        O  0.97027355  0.05602689  0.45397177    -0.73500
O987        O  0.02431833  0.02783507  0.43119234    -0.62100
O988        O  0.08709306  0.54464325  0.42541642    -0.70600
O989        O  0.48861260  0.49268687  0.42411137    -0.70100
O990        O  0.44146684  0.96801196  0.42317482    -0.61400
O991        O  0.45204082  0.01726300  0.45073559    -0.73900
O992        O  0.46057080  0.02393150  0.39848178    -0.72700
Cu993      Cu  0.97781244  0.05542367  0.42776352     1.04600
Cu994      Cu  0.45405142  0.02133302  0.42456849     1.04300
C995        C  0.49134596  0.01698953  0.39136043     0.93600
C996        C  0.47992654  0.00687875  0.45965546     0.92800
C997        C  0.46667675  0.94379551  0.42336977     0.84900
C998        C  0.48554419  0.52724851  0.42527328     0.91200
O999        O  0.08465909  0.78330400  0.40010862    -0.72500
O1000       O  0.09873255  0.78756904  0.45270321    -0.73500
O1001       O  0.08823614  0.73244506  0.42789092    -0.62100
O1002       O  0.09725227  0.83942198  0.42487492    -0.70600
O1003       O  0.40550792  0.77794614  0.42555534    -0.70100
O1004       O  0.38917473  0.67082850  0.42062411    -0.61400
O1005       O  0.38971999  0.71894204  0.44950763    -0.73900
O1006       O  0.40783095  0.73112281  0.39681248    -0.72700
Cu1007     Cu  0.09432097  0.78561785  0.42621733     1.04600
Cu1008     Cu  0.39580573  0.72490813  0.42294184     1.04300
C1009       C  0.44078928  0.72918754  0.39098750     0.93600
C1010       C  0.41784130  0.71349274  0.45930121     0.92800
C1011       C  0.41651738  0.64963116  0.42269764     0.84900
C1012       C  0.43804867  0.79023815  0.42729070     0.91200
O1013       O  0.26677650  0.99224692  0.40021663    -0.72500
O1014       O  0.26583168  0.99707886  0.45219795    -0.73500
O1015       O  0.23005248  0.95385370  0.42722808    -0.62100
O1016       O  0.30044840  0.53099572  0.42575292    -0.70600
O1017       O  0.25169050  0.56747389  0.42635924    -0.70100
O1018       O  0.18226123  0.99148233  0.42506511    -0.61400
O1019       O  0.21700982  0.03326319  0.45086472    -0.73900
O1020       O  0.22026821  0.03141310  0.39883813    -0.72700
Cu1021     Cu  0.26789881  0.99311676  0.42628735     1.04600
Cu1022     Cu  0.21705760  0.03384080  0.42481025     1.04300
C1023       C  0.24380700  0.01130197  0.39138993     0.93600
C1024       C  0.24115125  0.01573157  0.45971578     0.92800
C1025       C  0.19548679  0.95933113  0.42640821     0.84900
C1026       C  0.28635713  0.56286843  0.42561584     0.91200
O1027       O  0.18044390  0.78652886  0.42711277    -0.72500
O1028       O  0.24712690  0.70027744  0.42542323    -0.73500
O1029       O  0.21583471  0.74136168  0.45245226    -0.62100
O1030       O  0.21143897  0.74477435  0.40026198    -0.70600
O1031       O  0.26072609  0.78078895  0.39955015    -0.70100
O1032       O  0.26633181  0.77549454  0.45182246    -0.61400
O1033       O  0.29694994  0.73573360  0.42443311    -0.73900
O1034       O  0.23068901  0.82140285  0.42691279    -0.72700
Cu1035     Cu  0.21199228  0.74189522  0.42635029     1.04600
Cu1036     Cu  0.26528516  0.77977931  0.42567426     1.04300
C1037       C  0.19585535  0.81791337  0.42720354     0.93600
C1038       C  0.28194341  0.70422192  0.42456402     0.92800
C1039       C  0.24201861  0.75745251  0.46038675     0.84900
C1040       C  0.23547964  0.76307913  0.39173500     0.91200
O1041       O  0.49374107  0.53180677  0.03981366    -0.72500
O1042       O  0.48739351  0.53450160  0.09170188    -0.73500
O1043       O  0.00007197  0.53848155  0.06573849    -0.62100
O1044       O  0.44316937  0.50647827  0.06456917    -0.70600
O1045       O  0.41606480  0.89483116  0.07583957    -0.70100
O1046       O  0.09090215  0.10232986  0.07431727    -0.61400
O1047       O  0.47334844  0.91892118  0.09924459    -0.73900
O1048       O  0.46609616  0.89796954  0.04741927    -0.72700
Cu1049     Cu  0.48954088  0.53505707  0.06562531     1.04600
Cu1050     Cu  0.46971949  0.90578186  0.07357769     1.04300
C1051       C  0.45857016  0.92457979  0.03691933     0.93600
C1052       C  0.46920452  0.95186969  0.10438524     0.92800
C1053       C  0.08785221  0.13723467  0.07459582     0.84900
C1054       C  0.39304026  0.92064390  0.07357402     0.91200
O1055       O  0.48381856  0.70138511  0.09446787    -0.72500
O1056       O  0.48187651  0.67712481  0.04353014    -0.73500
O1057       O  0.44063346  0.65553678  0.07292089    -0.62100
O1058       O  0.06313025  0.82439700  0.07041912    -0.70600
O1059       O  0.02683306  0.77596689  0.06734347    -0.70100
O1060       O  0.47738009  0.60793600  0.07779502    -0.61400
O1061       O  0.51898802  0.62992641  0.04776002    -0.73900
O1062       O  0.52080818  0.65442679  0.09982858    -0.72700
Cu1063     Cu  0.48173814  0.69037531  0.06883775     1.04600
Cu1064     Cu  0.52126750  0.63980961  0.07400818     1.04300
C1065       C  0.50289210  0.68228389  0.10518131     0.93600
C1066       C  0.50002532  0.65038619  0.03741744     0.92800
C1067       C  0.44543667  0.62153391  0.07636934     0.84900
C1068       C  0.05885316  0.79008681  0.06836653     0.91200
O1069       O  0.25418168  0.53409406  0.09447455    -0.72500
O1070       O  0.24434689  0.53483917  0.04265828    -0.73500
O1071       O  0.20298838  0.56371331  0.06992376    -0.62100
O1072       O  0.29489779  0.50649980  0.06659392    -0.70600
O1073       O  0.23350522  0.98550919  0.06844718    -0.70100
O1074       O  0.19355626  0.08676704  0.06864803    -0.61400
O1075       O  0.21274630  0.03728886  0.04248448    -0.73900
O1076       O  0.21401197  0.03465468  0.09424140    -0.72700
Cu1077     Cu  0.25017947  0.53659183  0.06844753     1.04600
Cu1078     Cu  0.21141351  0.03546611  0.06837752     1.04300
C1079       C  0.24243318  0.04564223  0.10232090     0.93600
C1080       C  0.24033471  0.04962814  0.03401238     0.92800
C1081       C  0.21420515  0.11512132  0.06926035     0.84900
C1082       C  0.26830797  0.98274894  0.06857488     0.91200
O1083       O  0.21870466  0.71522259  0.06715396    -0.72500
O1084       O  0.30714211  0.65321266  0.07261517    -0.73500
O1085       O  0.26326927  0.67572991  0.04433318    -0.62100
O1086       O  0.26350119  0.69436691  0.09520135    -0.70600
O1087       O  0.22845132  0.64531771  0.09989262    -0.70100
O1088       O  0.22802740  0.62654822  0.04765234    -0.61400
O1089       O  0.27240773  0.60362613  0.07671249    -0.73900
O1090       O  0.18373256  0.66584935  0.07117189    -0.72700
Cu1091     Cu  0.26437941  0.68619657  0.06965237     1.04600
Cu1092     Cu  0.22692122  0.63350956  0.07400821     1.04300
C1093       C  0.18709775  0.70027872  0.06853649     0.93600
C1094       C  0.30376156  0.61883133  0.07556712     0.92800
C1095       C  0.24590631  0.64886202  0.03776313     0.84900
C1096       C  0.24570002  0.67340569  0.10555757     0.91200
O1097       O  0.50287777  0.54776551  0.16013481    -0.72500
O1098       O  0.50904340  0.55693484  0.21185572    -0.73500
O1099       O  0.06057085  0.54562690  0.18435719    -0.62100
O1100       O  0.45015754  0.55367295  0.18717128    -0.70600
O1101       O  0.43591923  0.98015603  0.19192632    -0.70100
O1102       O  0.04718041  0.00970332  0.18652011    -0.61400
O1103       O  0.49541337  0.98504996  0.21673149    -0.73900
O1104       O  0.48787467  0.95741863  0.16670046    -0.72700
Cu1105     Cu  0.50576798  0.55447326  0.18591341     1.04600
Cu1106     Cu  0.49156577  0.96987171  0.19191688     1.04300
C1107       C  0.48980649  0.98186741  0.15472400     0.93600
C1108       C  0.49932945  0.01843823  0.22102833     0.92800
C1109       C  0.06899287  0.03631442  0.18959042     0.84900
C1110       C  0.42343913  0.01211370  0.18792013     0.91200
O1111       O  0.48657843  0.78125333  0.21025520    -0.72500
O1112       O  0.49495898  0.74982460  0.15962962    -0.73500
O1113       O  0.43762555  0.75165102  0.18514888    -0.62100
O1114       O  0.05672379  0.79644037  0.19290429    -0.70600
O1115       O  0.05342485  0.73703770  0.18766553    -0.70100
O1116       O  0.45206004  0.69606353  0.19484551    -0.61400
O1117       O  0.50910616  0.69370865  0.16875991    -0.73900
O1118       O  0.50506191  0.72610049  0.21893440    -0.72700
Cu1119     Cu  0.49041761  0.76802074  0.18464242     1.04600
Cu1120     Cu  0.50736690  0.70842934  0.19411574     1.04300
C1121       C  0.49463803  0.75849293  0.22253408     0.93600
C1122       C  0.50273835  0.71641244  0.15630081     0.92800
C1123       C  0.42762510  0.71969368  0.19033825     0.84900
C1124       C  0.07268109  0.76572238  0.19025467     0.91200
O1125       O  0.23893927  0.99316300  0.21411833    -0.72500
O1126       O  0.23806749  0.00186653  0.16196278    -0.73500
O1127       O  0.29199527  0.98263952  0.18769629    -0.62100
O1128       O  0.18493690  0.01099317  0.18856638    -0.70600
O1129       O  0.19821830  0.52219459  0.19039509    -0.70100
O1130       O  0.31039088  0.52610061  0.19019804    -0.61400
O1131       O  0.25329458  0.52877150  0.16454748    -0.73900
O1132       O  0.25455255  0.52054764  0.21631698    -0.72700
Cu1133     Cu  0.23789500  0.99510493  0.18799736     1.04600
Cu1134     Cu  0.25411095  0.52654342  0.19044066     1.04300
C1135       C  0.24903779  0.02100757  0.22276693     0.93600
C1136       C  0.24494465  0.03300542  0.15479107     0.92800
C1137       C  0.31693784  0.00733330  0.18807170     0.84900
C1138       C  0.17551359  0.04451916  0.19000391     0.91200
O1139       O  0.24705926  0.68344875  0.16864235    -0.72500
O1140       O  0.24939125  0.71782146  0.21777520    -0.73500
O1141       O  0.19167405  0.70195236  0.19358305    -0.62100
O1142       O  0.30496004  0.70177159  0.19263847    -0.70600
O1143       O  0.30179828  0.75971006  0.18365480    -0.70100
O1144       O  0.19148130  0.75970340  0.18417766    -0.61400
O1145       O  0.24640734  0.77586196  0.20883395    -0.73900
O1146       O  0.24598277  0.74111712  0.15901782    -0.72700
Cu1147     Cu  0.24829678  0.69918546  0.19347695     1.04600
Cu1148     Cu  0.24656116  0.76100685  0.18356896     1.04300
C1149       C  0.24612685  0.70665605  0.15609868     0.93600
C1150       C  0.24742336  0.75188594  0.22114494     0.92800
C1151       C  0.17396442  0.73117677  0.18927482     0.84900
C1152       C  0.32098531  0.73171394  0.18793268     0.91200
O1153       O  0.08990655  0.08088784  0.92241430    -0.72500
O1154       O  0.41554911  0.86825100  0.92645575    -0.73500
O1155       O  0.03612589  0.04092586  0.90307022    -0.62100
O1156       O  0.46650757  0.88235866  0.95375678    -0.70600
O1157       O  0.49266759  0.51983742  0.94852220    -0.70100
O1158       O  0.95670516  0.45955532  0.89864266    -0.61400
O1159       O  0.44222705  0.48994452  0.92498970    -0.73900
O1160       O  0.99209146  0.50469910  0.92317407    -0.72700
Cu1161     Cu  0.04553772  0.05078767  0.92842263     1.04600
Cu1162     Cu  0.95435862  0.46506268  0.92466320     1.04300
C1163       C  0.08897154  0.11539894  0.91916266     0.93600
C1164       C  0.39174207  0.89367744  0.92655657     0.92800
C1165       C  0.01673050  0.06232741  0.89353019     0.84900
C1166       C  0.45820054  0.91177111  0.96168349     0.91200
O1167       O  0.48282984  0.66727462  0.95372644    -0.72500
O1168       O  0.48843220  0.68272433  0.90185635    -0.73500
O1169       O  0.44358919  0.64089137  0.92478897    -0.62100
O1170       O  0.06794807  0.81859263  0.92823950    -0.70600
O1171       O  0.03344328  0.76913274  0.93283763    -0.70100
O1172       O  0.48021612  0.59244822  0.92368381    -0.61400
O1173       O  0.52525572  0.63478985  0.89985690    -0.73900
O1174       O  0.52048993  0.61991030  0.95296157    -0.72700
Cu1175     Cu  0.48446359  0.67614953  0.92782864     1.04600
Cu1176     Cu  0.52419459  0.62499011  0.92633305     1.04300
C1177       C  0.50091363  0.64209872  0.96170719     0.93600
C1178       C  0.50794163  0.66170177  0.89265877     0.92800
C1179       C  0.44829780  0.60643895  0.92340449     0.84900
C1180       C  0.06493806  0.78433385  0.93147933     0.91200
O1181       O  0.24370062  0.52301912  0.90014993    -0.72500
O1182       O  0.23961253  0.52804477  0.95177903    -0.73500
O1183       O  0.28981390  0.50016605  0.92789019    -0.62100
O1184       O  0.19274802  0.55076108  0.92425628    -0.70600
O1185       O  0.19559352  0.06113526  0.92309102    -0.70100
O1186       O  0.23409214  0.96013488  0.92956078    -0.61400
O1187       O  0.21476080  0.01752022  0.95221060    -0.73900
O1188       O  0.21475314  0.00471309  0.90074652    -0.72700
Cu1189     Cu  0.24248897  0.52740473  0.92596934     1.04600
Cu1190     Cu  0.21280902  0.01014412  0.92651385     1.04300
C1191       C  0.24277072  0.01487943  0.89201455     0.93600
C1192       C  0.24237532  0.03216440  0.95968909     0.92800
C1193       C  0.26882743  0.95677855  0.92966577     0.84900
C1194       C  0.21649872  0.08902196  0.92090439     0.91200
O1195       O  0.27540443  0.59556439  0.92460837    -0.72500
O1196       O  0.18989379  0.66177415  0.92846088    -0.73500
O1197       O  0.23355324  0.63871575  0.90019846    -0.62100
O1198       O  0.23204795  0.62157547  0.95300371    -0.70600
O1199       O  0.26931413  0.66935885  0.95517325    -0.70100
O1200       O  0.26996297  0.68684714  0.90385199    -0.61400
O1201       O  0.22613873  0.71023209  0.93160038    -0.73900
O1202       O  0.31205901  0.64397466  0.92740301    -0.72700
Cu1203     Cu  0.23143216  0.62761591  0.92643800     1.04600
Cu1204     Cu  0.27072408  0.67910174  0.92962647     1.04300
C1205       C  0.30734025  0.60963954  0.92525623     0.93600
C1206       C  0.19412154  0.69600976  0.93077457     0.92800
C1207       C  0.25175251  0.66605704  0.89389629     0.84900
C1208       C  0.25035208  0.64387345  0.96239643     0.91200
O1209       O  0.96947699  0.03309902  0.59954515    -0.72500
O1210       O  0.96496290  0.04689549  0.54708835    -0.73500
O1211       O  0.08212794  0.53604325  0.57194615    -0.62100
O1212       O  0.01487732  0.01463503  0.57155571    -0.70600
O1213       O  0.43584077  0.95286929  0.56979977    -0.70100
O1214       O  0.48076388  0.47124657  0.56480004    -0.61400
O1215       O  0.44858251  0.00685146  0.54327236    -0.73900
O1216       O  0.45346658  0.00456887  0.59568885    -0.72700
Cu1217     Cu  0.96811551  0.04202956  0.57347030     1.04600
Cu1218     Cu  0.44886889  0.00647954  0.56947492     1.04300
C1219       C  0.48346854  0.99553661  0.60326007     0.93600
C1220       C  0.47705270  0.99812594  0.53465027     0.92800
C1221       C  0.47962532  0.50602567  0.56587293     0.84900
C1222       C  0.46101524  0.92857587  0.56982604     0.91200
O1223       O  0.38644796  0.65311479  0.57247051    -0.72500
O1224       O  0.40108270  0.76167393  0.56994558    -0.73500
O1225       O  0.38728784  0.70695959  0.54470201    -0.62100
O1226       O  0.40279745  0.70940289  0.59776483    -0.70600
O1227       O  0.10019231  0.77350207  0.59964618    -0.70100
O1228       O  0.10566319  0.78269854  0.54667182    -0.61400
O1229       O  0.11032161  0.83289038  0.57449965    -0.73900
O1230       O  0.09691775  0.72502792  0.57171477    -0.72700
Cu1231     Cu  0.39210903  0.70790645  0.57139607     1.04600
Cu1232     Cu  0.10549535  0.77840918  0.57321375     1.04300
C1233       C  0.41444030  0.63276069  0.57061933     0.93600
C1234       C  0.43348210  0.77465463  0.56851540     0.92800
C1235       C  0.41591634  0.70383057  0.53519219     0.84900
C1236       C  0.43553148  0.70682919  0.60395495     0.91200
O1237       O  0.26393690  0.03227350  0.54300964    -0.72500
O1238       O  0.26383110  0.02464916  0.59507772    -0.73500
O1239       O  0.29881974  0.98708836  0.56809753    -0.62100
O1240       O  0.24803874  0.55880005  0.57107235    -0.70600
O1241       O  0.20016621  0.52069998  0.57198524    -0.70100
O1242       O  0.25006101  0.95040945  0.56634290    -0.61400
O1243       O  0.21584731  0.98697336  0.59392786    -0.73900
O1244       O  0.21427173  0.99691823  0.54210310    -0.72700
Cu1245     Cu  0.26553781  0.03007325  0.56911585     1.04600
Cu1246     Cu  0.21343607  0.99063096  0.56794710     1.04300
C1247       C  0.23915253  0.01567526  0.53435751     0.93600
C1248       C  0.23997137  0.00425854  0.60261704     0.92800
C1249       C  0.28480566  0.95531319  0.56667632     0.84900
C1250       C  0.21353838  0.55295146  0.57201930     0.91200
O1251       O  0.28385849  0.73712110  0.59543350    -0.72500
O1252       O  0.27797186  0.73745206  0.54315962    -0.73500
O1253       O  0.31196850  0.78247826  0.56804469    -0.62100
O1254       O  0.24955359  0.69249998  0.57046925    -0.70600
O1255       O  0.19817078  0.72505436  0.57203594    -0.70100
O1256       O  0.25997337  0.81424657  0.56830142    -0.61400
O1257       O  0.22549148  0.76797200  0.54410453    -0.73900
O1258       O  0.23315582  0.77055279  0.59641027    -0.72700
Cu1259     Cu  0.28261038  0.73609910  0.56926093     1.04600
Cu1260     Cu  0.22752127  0.77075979  0.57025649     1.04300
C1261       C  0.25941715  0.75366404  0.60412283     0.93600
C1262       C  0.25070577  0.75252797  0.53539573     0.92800
C1263       C  0.29490289  0.81286817  0.56753961     0.84900
C1264       C  0.21465144  0.69446655  0.57167757     0.91200
C1265       C  0.31767099  0.90485660  0.58097333    -0.13000
C1266       C  0.30797549  0.92320378  0.56556607     0.09200
C1267       C  0.30806459  0.90451076  0.54993834    -0.13000
C1268       C  0.31139522  0.86653749  0.55014554    -0.13000
C1269       C  0.31428150  0.84753428  0.56599574     0.09200
C1270       C  0.32083460  0.86679584  0.58118813    -0.13000
H1271       H  0.31724963  0.91906318  0.59314389     0.13200
H1272       H  0.30024228  0.91846522  0.53799033     0.13200
H1273       H  0.30590020  0.85185244  0.53836033     0.13200
H1274       H  0.32264577  0.85230721  0.59352714     0.13200
C1275       C  0.19037568  0.60336577  0.58858534    -0.13000
C1276       C  0.19024580  0.58483099  0.57289858     0.09200
C1277       C  0.18462002  0.60430986  0.55733679    -0.13000
C1278       C  0.18692137  0.64238355  0.55714593    -0.13000
C1279       C  0.19404239  0.66053964  0.57257032     0.09200
C1280       C  0.19262189  0.64144262  0.58841524    -0.13000
H1281       H  0.19510944  0.58852520  0.60066140     0.13200
H1282       H  0.18489959  0.59020467  0.54513293     0.13200
H1283       H  0.18826458  0.65703588  0.54483564     0.13200
H1284       H  0.19836658  0.65537019  0.60037965     0.13200
C1285       C  0.47986317  0.86466486  0.57503109    -0.13000
C1286       C  0.45217181  0.88952240  0.57027852     0.09200
C1287       C  0.05929164  0.94530290  0.58673726    -0.13000
C1288       C  0.07750831  0.91183920  0.58786531    -0.13000
C1289       C  0.43946570  0.81413898  0.56892298     0.09200
C1290       C  0.47367215  0.82734413  0.57424880    -0.13000
H1291       H  0.50649840  0.87406292  0.57933983     0.13200
H1292       H  0.05017225  0.95795099  0.59852733     0.13200
H1293       H  0.08191103  0.89910182  0.60047587     0.13200
H1294       H  0.49560849  0.80882276  0.57798702     0.13200
C1295       C  0.08922886  0.61143569  0.57372277    -0.13000
C1296       C  0.44495636  0.52545354  0.56685142     0.09200
C1297       C  0.43469197  0.53795946  0.58316802    -0.13000
C1298       C  0.41782136  0.57200329  0.58457588    -0.13000
C1299       C  0.41088277  0.59313222  0.56963735     0.09200
C1300       C  0.09222538  0.64925672  0.57355056    -0.13000
H1301       H  0.11369199  0.59529986  0.57584727     0.13200
H1302       H  0.44483784  0.52434303  0.59480705     0.13200
H1303       H  0.41521338  0.58392152  0.59723454     0.13200
H1304       H  0.11885342  0.66148623  0.57568330     0.13200
C1305       C  0.39556964  0.58744955  0.90645451    -0.13000
C1306       C  0.41563865  0.58377655  0.92186147     0.09200
C1307       C  0.39751332  0.57414607  0.93725164    -0.13000
C1308       C  0.35933532  0.57615889  0.93791765    -0.13000
C1309       C  0.33973533  0.58712961  0.92310789     0.09200
C1310       C  0.35744547  0.58924206  0.90708882    -0.13000
H1311       H  0.40928733  0.59516889  0.89450902     0.13200
H1312       H  0.41277729  0.57145808  0.94926417     0.13200
H1313       H  0.34588236  0.57466888  0.95038645     0.13200
H1314       H  0.34252495  0.59795882  0.89558498     0.13200
C1315       C  0.13295902  0.77868767  0.93235291    -0.13000
C1316       C  0.09815098  0.76204114  0.93302629     0.09200
C1317       C  0.09532840  0.72375628  0.93404843    -0.13000
C1318       C  0.12673195  0.70237623  0.93367062    -0.13000
C1319       C  0.16147775  0.71893646  0.93235585     0.09200
C1320       C  0.16445289  0.75725336  0.93206029    -0.13000
H1321       H  0.13585134  0.80822839  0.93164691     0.13200
H1322       H  0.06883543  0.71024148  0.93462225     0.13200
H1323       H  0.12370322  0.67283168  0.93410721     0.13200
H1324       H  0.19097298  0.77063468  0.93113948     0.13200
C1325       C  0.38551594  0.44810011  0.94510608    -0.13000
C1326       C  0.35284672  0.88554905  0.92817034     0.09200
C1327       C  0.33118707  0.88948040  0.91328006    -0.13000
C1328       C  0.29738179  0.90703034  0.91431082    -0.13000
C1329       C  0.28586650  0.92084016  0.93017643     0.09200
C1330       C  0.34761899  0.45229355  0.94540385    -0.13000
H1331       H  0.40140440  0.45554902  0.95639105     0.13200
H1332       H  0.34290572  0.88494705  0.90064652     0.13200
H1333       H  0.28371328  0.91544267  0.90241753     0.13200
H1334       H  0.33466872  0.46229375  0.95697945     0.13200
C1335       C  0.18030707  0.12541227  0.90128510    -0.13000
C1336       C  0.19849854  0.12388952  0.91731036     0.09200
C1337       C  0.10732961  0.54566819  0.93873132    -0.13000
C1338       C  0.07058931  0.53490972  0.93861532    -0.13000
C1339       C  0.12362199  0.13455390  0.91651829     0.09200
C1340       C  0.14225262  0.12933007  0.90098196    -0.13000
H1341       H  0.19348577  0.11468216  0.88991765     0.13200
H1342       H  0.12126420  0.54821625  0.95105954     0.13200
H1343       H  0.05676062  0.52993156  0.95082558     0.13200
H1344       H  0.12726057  0.12230632  0.88937401     0.13200
C1345       C  0.38742357  0.71056540  0.19128680    -0.16000
C1346       C  0.36176171  0.73607735  0.18717120    -0.31200
H1347       H  0.37898654  0.68334245  0.19561796     0.13000
H1348       H  0.37115228  0.76309864  0.18296390     0.13600
C1349       C  0.11366812  0.76386735  0.18987670    -0.16000
C1350       C  0.13295302  0.73207021  0.19014161    -0.31200
H1351       H  0.12849286  0.78975456  0.18949797     0.13000
H1352       H  0.11840062  0.70611869  0.19133765     0.13600
C1353       C  0.38364808  0.02092704  0.18785040    -0.16000
C1354       C  0.35625572  0.99611401  0.18835730    -0.31200
H1355       H  0.37811475  0.55250424  0.18899104     0.13000
H1356       H  0.36270509  0.96707797  0.18893282     0.13600
C1357       C  0.10911976  0.02889390  0.18921531    -0.16000
C1358       C  0.13581434  0.05442072  0.19073596    -0.31200
H1359       H  0.11694092  0.00055551  0.18730836     0.13000
H1360       H  0.12865432  0.46145140  0.19207897     0.13600
C1361       C  0.27428479  0.66372555  0.00909649    -0.13000
C1362       C  0.24725490  0.64457365  0.01857587     0.09200
C1363       C  0.22166372  0.62327480  0.00940049    -0.13000
C1364       C  0.22284683  0.62194007  0.99114439    -0.13000
C1365       C  0.24973588  0.64174728  0.98175134     0.09200
C1366       C  0.27553324  0.66230162  0.99108240    -0.13000
H1367       H  0.29460057  0.68027379  0.01562178     0.13200
H1368       H  0.20039757  0.60825166  0.01628324     0.13200
H1369       H  0.20236371  0.60604368  0.98438731     0.13200
H1370       H  0.29670626  0.67790481  0.98442023     0.13200
C1371       C  0.24522119  0.69350949  0.13849394    -0.12900
C1372       C  0.24484831  0.68266242  0.12372451    -0.14400
C1373       C  0.24511611  0.53143168  0.98809071    -0.13000
C1374       C  0.24166496  0.03781148  0.97863391     0.09200
C1375       C  0.21004608  0.02911273  0.98824083    -0.13000
C1376       C  0.20939551  0.03386126  0.00612512    -0.13000
C1377       C  0.24035526  0.04740559  0.01487401     0.09200
C1378       C  0.24553492  0.53315750  0.00610465    -0.13000
H1379       H  0.26035544  0.55185161  0.98069448     0.13200
H1380       H  0.18577905  0.01838132  0.98196163     0.13200
H1381       H  0.18469981  0.02643190  0.01313021     0.13200
H1382       H  0.26124157  0.55471760  0.01212793     0.13200
C1383       C  0.24419495  0.03712846  0.13629817    -0.12900
C1384       C  0.24364187  0.04165564  0.12081013    -0.14400
C1385       C  0.39459512  0.58891273  0.06315384    -0.13000
C1386       C  0.41301691  0.59868939  0.07831859     0.09200
C1387       C  0.39374128  0.60075789  0.09387826    -0.13000
C1388       C  0.35554018  0.60018321  0.09360121    -0.13000
C1389       C  0.33705291  0.59758196  0.07776914     0.09200
C1390       C  0.35638268  0.58846744  0.06286156    -0.13000
H1391       H  0.40929968  0.58757788  0.05102516     0.13200
H1392       H  0.40774322  0.60866991  0.10562459     0.13200
H1393       H  0.34079119  0.60757993  0.10515711     0.13200
H1394       H  0.34231169  0.58674940  0.05052938     0.13200
C1395       C  0.08807808  0.72876938  0.06614035    -0.13000
C1396       C  0.09143486  0.76690053  0.06752326     0.09200
C1397       C  0.12640996  0.78293414  0.06870309    -0.13000
C1398       C  0.15754869  0.76121242  0.06867762    -0.13000
C1399       C  0.15424689  0.72308230  0.06754337     0.09200
C1400       C  0.11933083  0.70695457  0.06619936    -0.13000
H1401       H  0.06138355  0.71578072  0.06525326     0.13200
H1402       H  0.12980043  0.81228492  0.06985828     0.13200
H1403       H  0.18415902  0.77425611  0.06989375     0.13200
H1404       H  0.11615981  0.67751913  0.06531966     0.13200
C1405       C  0.47245109  0.66259520  0.00796220    -0.13000
C1406       C  0.49895572  0.64432233  0.01819567     0.09200
C1407       C  0.97629101  0.82346028  0.00805641    -0.13000
C1408       C  0.97713656  0.82193197  0.99001457    -0.13000
C1409       C  0.49926564  0.64010371  0.98117727     0.09200
C1410       C  0.47259285  0.66052053  0.98987139    -0.13000
H1411       H  0.45173598  0.67929551  0.01394330     0.13200
H1412       H  0.95647774  0.80641059  0.01487550     0.13200
H1413       H  0.95790947  0.80384041  0.98368506     0.13200
H1414       H  0.45200539  0.67574107  0.98263163     0.13200
C1415       C  0.50413990  0.69301669  0.12341594    -0.12900
C1416       C  0.50393098  0.70382521  0.13834665    -0.14400
C1417       C  0.33629745  0.91557456  0.05729664    -0.13000
C1418       C  0.35380841  0.91353046  0.07345966     0.09200
C1419       C  0.38764569  0.44045177  0.07788654    -0.13000
C1420       C  0.34930005  0.44005689  0.07819489    -0.13000
C1421       C  0.28604533  0.94734167  0.07043872     0.09200
C1422       C  0.30238196  0.93283125  0.05575478    -0.13000
H1423       H  0.35143271  0.90981285  0.04562625     0.13200
H1424       H  0.40272503  0.43451879  0.08970553     0.13200
H1425       H  0.33534989  0.43401080  0.09027080     0.13200
H1426       H  0.29212154  0.94004571  0.04296853     0.13200
C1427       C  0.07841372  0.56389093  0.08277853    -0.13000
C1428       C  0.12135494  0.15902996  0.07496035     0.09200
C1429       C  0.13781488  0.16687601  0.05895192    -0.13000
C1430       C  0.17569102  0.16285081  0.05728706    -0.13000
C1431       C  0.19605873  0.15017868  0.07158258     0.09200
C1432       C  0.11642632  0.56689627  0.08424785    -0.13000
H1433       H  0.06244561  0.55974465  0.09445784     0.13200
H1434       H  0.12119746  0.16898787  0.04732219     0.13200
H1435       H  0.18705065  0.16123143  0.04439596     0.13200
H1436       H  0.12895072  0.56529460  0.09697004     0.13200
C1437       C  0.96025597  0.48623191  0.00510911    -0.13000
C1438       C  0.45689997  0.91936808  0.01776711     0.09200
C1439       C  0.46866882  0.88687646  0.00995588    -0.13000
C1440       C  0.46866998  0.88378081  0.99177814    -0.13000
C1441       C  0.45686324  0.91309932  0.98102421     0.09200
C1442       C  0.95850917  0.48125745  0.98716450    -0.13000
H1443       H  0.94447368  0.50812357  0.01066291     0.13200
H1444       H  0.47850516  0.86413071  0.01786506     0.13200
H1445       H  0.47846699  0.85872726  0.98615151     0.13200
H1446       H  0.94154750  0.49957100  0.97941531     0.13200
C1447       C  0.48338807  0.97116849  0.13691724    -0.12900
C1448       C  0.47650437  0.96134432  0.12228296    -0.14400
C1449       C  0.21250338  0.74976857  0.48960997    -0.13000
C1450       C  0.24427375  0.75512993  0.47958271     0.09200
C1451       C  0.27827537  0.75839734  0.48808818    -0.13000
C1452       C  0.28043422  0.75655489  0.50619805    -0.13000
C1453       C  0.24853233  0.75247664  0.51621763     0.09200
C1454       C  0.21454555  0.74904462  0.50774075    -0.13000
H1455       H  0.18598418  0.74684109  0.48342715     0.13200
H1456       H  0.30325809  0.76220408  0.48071745     0.13200
H1457       H  0.30695711  0.75936205  0.51240228     0.13200
H1458       H  0.18960804  0.74542156  0.51515997     0.13200
C1459       C  0.17087587  0.86977684  0.44281722    -0.13000
C1460       C  0.17445649  0.85129728  0.42723022     0.09200
C1461       C  0.16996831  0.87030869  0.41146161    -0.13000
C1462       C  0.16836887  0.90842050  0.41124780    -0.13000
C1463       C  0.17195479  0.92719423  0.42677808     0.09200
C1464       C  0.16934366  0.90792376  0.44257904    -0.13000
H1465       H  0.17459852  0.85530109  0.45506520     0.13200
H1466       H  0.17297385  0.85623094  0.39934228     0.13200
H1467       H  0.17067981  0.92304476  0.39896280     0.13200
H1468       H  0.17241651  0.92220297  0.45465798     0.13200
C1469       C  0.31499089  0.61480644  0.43960181    -0.13000
C1470       C  0.30893496  0.59564430  0.42432822     0.09200
C1471       C  0.30793059  0.61472956  0.40843744    -0.13000
C1472       C  0.30507532  0.65276065  0.40818435    -0.13000
C1473       C  0.30409746  0.67140205  0.42381040     0.09200
C1474       C  0.31237265  0.65290060  0.43935661    -0.13000
H1475       H  0.31546525  0.60033306  0.45197195     0.13200
H1476       H  0.30286812  0.60018577  0.39657157     0.13200
H1477       H  0.29838407  0.66685698  0.39612088     0.13200
H1478       H  0.31143931  0.66715162  0.45151095     0.13200
C1479       C  0.20706870  0.01635113  0.48770156    -0.13000
C1480       C  0.24054675  0.01695147  0.47877613     0.09200
C1481       C  0.21473153  0.51125624  0.49067647    -0.13000
C1482       C  0.21772316  0.50951604  0.50874686    -0.13000
C1483       C  0.23955717  0.01745604  0.51525723     0.09200
C1484       C  0.20659510  0.01599208  0.50580430    -0.13000
H1485       H  0.18133117  0.01519978  0.48067540     0.13200
H1486       H  0.18779469  0.51287096  0.48476854     0.13200
H1487       H  0.19301900  0.51006426  0.51648365     0.13200
H1488       H  0.18047207  0.01472716  0.51242909     0.13200
C1489       C  0.10674779  0.78857348  0.49050414    -0.13000
C1490       C  0.41518770  0.71023577  0.47869647     0.09200
C1491       C  0.38171141  0.71082669  0.48784087    -0.13000
C1492       C  0.38124813  0.70836224  0.50617886    -0.13000
C1493       C  0.41424175  0.70524564  0.51573805     0.09200
C1494       C  0.10809120  0.78793642  0.50877294    -0.13000
H1495       H  0.13216692  0.78848173  0.48331767     0.13200
H1496       H  0.35600943  0.71327846  0.48085757     0.13200
H1497       H  0.35521051  0.70901534  0.51284828     0.13200
H1498       H  0.13453368  0.78730327  0.51518693     0.13200
C1499       C  0.06741256  0.95825793  0.41677380    -0.13000
C1500       C  0.45765324  0.90482146  0.42323866     0.09200
C1501       C  0.42252918  0.89208530  0.42769584    -0.13000
C1502       C  0.41593617  0.85450473  0.42926180    -0.13000
C1503       C  0.44454821  0.82963068  0.42655297     0.09200
C1504       C  0.07596723  0.92134039  0.41503560    -0.13000
H1505       H  0.06392094  0.97505160  0.40517028     0.13200
H1506       H  0.40055884  0.91105322  0.43032830     0.13200
H1507       H  0.38873589  0.84492469  0.43275181     0.13200
H1508       H  0.08038899  0.91048784  0.40227395     0.13200
C1509       C  0.08836236  0.61961885  0.43104628    -0.13000
C1510       C  0.44971793  0.54447860  0.42491306     0.09200
C1511       C  0.43708196  0.55796922  0.40888097    -0.13000
C1512       C  0.41813457  0.59106889  0.40804332    -0.13000
C1513       C  0.41189633  0.61011713  0.42326165     0.09200
C1514       C  0.08831544  0.65740288  0.43215470    -0.13000
H1515       H  0.11396046  0.60514098  0.43307141     0.13200
H1516       H  0.44699325  0.54636928  0.39698724     0.13200
H1517       H  0.41394408  0.60441877  0.39555509     0.13200
H1518       H  0.11398048  0.67125411  0.43488498     0.13200
C1519       C  0.54305208  0.45665706  0.48526122    -0.13000
C1520       C  0.47785836  0.00353378  0.47880392     0.09200
C1521       C  0.96622648  0.05794570  0.49144724    -0.13000
C1522       C  0.96541143  0.05601612  0.50968444    -0.13000
C1523       C  0.47640620  0.99909643  0.51543427     0.09200
C1524       C  0.54198478  0.45340768  0.50333486    -0.13000
H1525       H  0.53487735  0.43335047  0.47767372     0.13200
H1526       H  0.98037265  0.08069676  0.48517946     0.13200
H1527       H  0.97889848  0.07737297  0.51690172     0.13200
H1528       H  0.53304491  0.42768652  0.50917035     0.13200
C1529       C  0.26047498  0.74332800  0.25227060    -0.16000
C1530       C  0.24482684  0.76325432  0.23943294    -0.31200
H1531       H  0.27824923  0.72064836  0.24902689     0.13000
H1532       H  0.22956781  0.78783455  0.24240589     0.13600
C1533       C  0.23464922  0.76287692  0.37305880    -0.12900
C1534       C  0.23539228  0.76126825  0.35743117    -0.14400
C1535       C  0.23052945  0.89094547  0.30580652    -0.16000
C1536       C  0.25939379  0.86816869  0.30409378    -0.31200
H1537       H  0.20309740  0.87938530  0.30693199     0.13000
H1538       H  0.28698636  0.87942067  0.30325926     0.16800
C1539       C  0.25836340  0.61707052  0.30707675    -0.16000
C1540       C  0.23121652  0.64211445  0.30663505    -0.31200
H1541       H  0.28674455  0.62624772  0.30744179     0.13000
H1542       H  0.20289688  0.63279959  0.30599514     0.13600
C1543       C  0.22854980  0.00055989  0.25163163    -0.16000
C1544       C  0.25268092  0.01870818  0.24164700    -0.31200
H1545       H  0.22175353  0.53016040  0.24648110     0.13000
H1546       H  0.27415849  0.03498388  0.24760808     0.13600
C1547       C  0.24424177  0.00993910  0.37278819    -0.12900
C1548       C  0.24365981  0.00872421  0.35717658    -0.14400
C1549       C  0.51302361  0.76002386  0.25392038    -0.16000
C1550       C  0.48927850  0.76889022  0.24098173    -0.31200
H1551       H  0.03078206  0.79321252  0.24845846     0.13000
H1552       H  0.46429863  0.78348347  0.24406151     0.13600
C1553       C  0.45903942  0.74642013  0.35812954    -0.12900
C1554       C  0.44941935  0.73820828  0.37287567    -0.14400
C1555       C  0.50515930  0.89850717  0.30715226    -0.16000
C1556       C  0.47565680  0.87585973  0.30567727    -0.31200
H1557       H  0.05631969  0.89846251  0.30781495     0.13000
H1558       H  0.44867071  0.88754471  0.30342502     0.13600
C1559       C  0.48461603  0.62190153  0.30425542    -0.16000
C1560       C  0.50879462  0.64969076  0.30549724    -0.31200
H1561       H  0.45541586  0.62771666  0.30384867     0.13000
H1562       H  0.07162655  0.64316997  0.30549395     0.13600
C1563       C  0.51876632  0.00695180  0.25131354    -0.16000
C1564       C  0.49991983  0.02748958  0.23966267    -0.31200
H1565       H  0.47945663  0.48627131  0.24718823     0.13000
H1566       H  0.97115228  0.99558357  0.24559253     0.13600
C1567       C  0.49463526  0.01784823  0.37274841    -0.12900
C1568       C  0.49826711  0.01708371  0.35719349    -0.14400
C1569       C  0.25315542  0.68439506  0.86028399    -0.12900
C1570       C  0.25179326  0.67450161  0.87541344    -0.14400
C1571       C  0.24236015  0.01144415  0.87356612    -0.12900
C1572       C  0.24176376  0.01000696  0.85800503    -0.14400
C1573       C  0.39480161  0.69224603  0.80594300    -0.16000
C1574       C  0.37130975  0.71968674  0.80961825    -0.31200
H1575       H  0.38392514  0.66558476  0.80253497     0.13000
H1576       H  0.38276006  0.74616235  0.81297253     0.13600
C1577       C  0.12195122  0.75268879  0.80903615    -0.16000
C1578       C  0.14182822  0.72129307  0.80871557    -0.31200
H1579       H  0.13621885  0.77887946  0.80866011     0.13000
H1580       H  0.12751463  0.69516992  0.80819272     0.13600
C1581       C  0.51041352  0.66930640  0.87401188    -0.12900
C1582       C  0.51106034  0.67810226  0.85865368    -0.14400
C1583       C  0.37453655  0.46118392  0.80658789    -0.16000
C1584       C  0.35243796  0.49072928  0.80634309    -0.31200
H1585       H  0.35767243  0.93845486  0.80245053     0.13000
H1586       H  0.36448530  0.51796476  0.80528267     0.13600
C1587       C  0.10345860  0.44722426  0.80621450    -0.16000
C1588       C  0.12411637  0.47795115  0.80525602    -0.31200
H1589       H  0.11411325  0.97362664  0.81052294     0.13000
H1590       H  0.11043255  0.50431123  0.80422893     0.13600
C1591       C  0.00771098  0.05142807  0.87587288    -0.12900
C1592       C  0.00080511  0.04037733  0.86137143    -0.14400
C1593       C  0.27599168  0.73219041  0.74506759    -0.16000
C1594       C  0.25562185  0.74919788  0.75698281    -0.31200
H1595       H  0.29618645  0.71214115  0.74937759     0.13000
H1596       H  0.23779824  0.77163956  0.75301352     0.13600
C1597       C  0.26287143  0.75102132  0.63856543    -0.12900
C1598       C  0.26127650  0.75273726  0.62287041    -0.14400
C1599       C  0.26675433  0.85893361  0.69211068    -0.16000
C1600       C  0.23591354  0.87917224  0.69035926    -0.31200
H1601       H  0.29309279  0.87284136  0.69299021     0.13000
H1602       H  0.20965430  0.86517795  0.68927373     0.13600
C1603       C  0.24327699  0.60860175  0.69048139    -0.16000
C1604       C  0.27326356  0.63039208  0.69063390    -0.31200
H1605       H  0.21634890  0.62129115  0.69018343     0.13000
H1606       H  0.30029461  0.61794169  0.69055053     0.13600
C1607       C  0.22579296  0.49407210  0.74247198    -0.16000
C1608       C  0.24548451  0.47336684  0.75355921    -0.31200
H1609       H  0.20361413  0.97297914  0.74826376     0.13000
H1610       H  0.26453249  0.45319927  0.74870476     0.13600
C1611       C  0.23943375  0.99792476  0.63675078    -0.12900
C1612       C  0.24014095  0.00072531  0.62117017    -0.14400
C1613       C  0.51714098  0.71658588  0.74067786    -0.16000
C1614       C  0.49963163  0.73362515  0.75367990    -0.31200
H1615       H  0.53933709  0.69782120  0.74384484     0.13000
H1616       H  0.03494163  0.70299380  0.75515335     0.13600
C1617       C  0.45328120  0.71673235  0.63726131    -0.12900
C1618       C  0.44330237  0.71187971  0.62235041    -0.14400
C1619       C  0.47579166  0.86330716  0.68956614    -0.16000
C1620       C  0.50123110  0.83711483  0.68682731    -0.31200
H1621       H  0.44764009  0.85492277  0.69204985     0.13000
H1622       H  0.04882789  0.87108095  0.69505192     0.13600
C1623       C  0.48004472  0.60820201  0.68940423    -0.16000
C1624       C  0.50993794  0.58697142  0.68678772    -0.31200
H1625       H  0.06544607  0.61464752  0.69425692     0.13000
H1626       H  0.53636708  0.60031311  0.68489696     0.13600
C1627       C  0.98326610  0.48550149  0.74120846    -0.16000
C1628       C  0.99812306  0.45829043  0.75094228    -0.31200
H1629       H  0.96458158  0.50483903  0.74698548     0.13000
H1630       H  0.47593204  0.01012837  0.75078126     0.13600
C1631       C  0.48501028  0.99188400  0.62191035    -0.12900
C1632       C  0.48732968  0.98730029  0.63745278    -0.14400
O1633       O  0.96791636  0.43770115  0.68645623    -0.72500
O1634       O  0.94637532  0.04087067  0.69615314    -0.73500
O1635       O  0.98519206  0.49083395  0.66012058    -0.62100
O1636       O  0.96020696  0.98394167  0.72182716    -0.70600
O1637       O  0.53268219  0.96669810  0.71474172    -0.70100
O1638       O  0.55021995  0.47273584  0.66315864    -0.61400
O1639       O  0.53787121  0.02711108  0.68944720    -0.73900
O1640       O  0.54738293  0.41816160  0.69000956    -0.72700
Cu1641     Cu  0.94945794  0.98505631  0.69588468     1.04600
Cu1642     Cu  0.54654336  0.47415239  0.68901291     1.04300
C1643       C  0.51794450  0.39928004  0.68820260     0.93600
C1644       C  0.97448735  0.06118542  0.69320867     0.92800
C1645       C  0.01845687  0.48815631  0.65502862     0.84900
C1646       C  0.50477866  0.97142316  0.72442743     0.91200
O1647       O  0.96988117  0.18374755  0.69067802    -0.72500
O1648       O  0.97836570  0.29639758  0.68850018    -0.73500
O1649       O  0.95832364  0.23972547  0.66436224    -0.62100
O1650       O  0.98789483  0.24082472  0.71445735    -0.70600
O1651       O  0.56518298  0.22240011  0.71682586    -0.70100
O1652       O  0.59435890  0.22600937  0.66643641    -0.61400
O1653       O  0.57916116  0.27946825  0.69200286    -0.73900
O1654       O  0.57852617  0.16723413  0.69137962    -0.72700
Cu1655     Cu  0.97149338  0.24034480  0.68971416     1.04600
Cu1656     Cu  0.58132747  0.22360774  0.69187848     1.04300
C1657       C  0.99836261  0.16481398  0.68702476     0.93600
C1658       C  0.00981865  0.31103057  0.68533162     0.92800
C1659       C  0.98280119  0.23780907  0.65266117     0.84900
C1660       C  0.02151266  0.23757250  0.71891462     0.91200
O1661       O  0.79282417  0.50656674  0.66349443    -0.72500
O1662       O  0.76529808  0.49794076  0.71389877    -0.73500
O1663       O  0.78418054  0.44533294  0.68804740    -0.62100
O1664       O  0.73503596  0.05498179  0.68628692    -0.70600
O1665       O  0.67700033  0.06203935  0.69386338    -0.70100
O1666       O  0.72607477  0.44154723  0.67979010    -0.61400
O1667       O  0.70694795  0.48903453  0.70691706    -0.73900
O1668       O  0.73447854  0.50166074  0.65565935    -0.72700
Cu1669     Cu  0.78027687  0.50254546  0.68896299     1.04600
Cu1670     Cu  0.71796062  0.49559550  0.68102420     1.04300
C1671       C  0.76847281  0.50512053  0.65161866     0.93600
C1672       C  0.73227547  0.49119081  0.71843153     0.92800
C1673       C  0.75612440  0.42577858  0.68387237     0.84900
C1674       C  0.70842604  0.07607000  0.69016977     0.91200
O1675       O  0.72537837  0.19678483  0.68892294    -0.72500
O1676       O  0.74411197  0.30721201  0.68781984    -0.73500
O1677       O  0.74035959  0.25129561  0.66217164    -0.62100
O1678       O  0.73057365  0.25282497  0.71482566    -0.70600
O1679       O  0.79001197  0.24109577  0.71719997    -0.70100
O1680       O  0.80041246  0.24361330  0.66515125    -0.61400
O1681       O  0.80371891  0.29843024  0.69144981    -0.73900
O1682       O  0.78528553  0.18740160  0.69069930    -0.72700
Cu1683     Cu  0.73303904  0.25240561  0.68836126     1.04600
Cu1684     Cu  0.79687629  0.24235533  0.69123928     1.04300
C1685       C  0.75250395  0.17460507  0.68977370     0.93600
C1686       C  0.77656901  0.32039791  0.68939697     0.92800
C1687       C  0.77218170  0.24744396  0.65546956     0.84900
C1688       C  0.75886593  0.24631744  0.72428335     0.91200
O1689       O  0.48376095  0.42668416  0.77901535    -0.72500
O1690       O  0.49119306  0.43521032  0.83104254    -0.73500
O1691       O  0.93406835  0.41639273  0.80128107    -0.62100
O1692       O  0.54274138  0.42850049  0.80354370    -0.70600
O1693       O  0.54356365  0.98693873  0.81187227    -0.70100
O1694       O  0.93169851  0.03348388  0.80697360    -0.61400
O1695       O  0.48451777  0.97333194  0.83636954    -0.73900
O1696       O  0.49003554  0.00167491  0.78511307    -0.72700
Cu1697     Cu  0.48748290  0.42860153  0.80513406     1.04600
Cu1698     Cu  0.48786732  0.98997532  0.81099731     1.04300
C1699       C  0.49112030  0.97636267  0.77387985     0.93600
C1700       C  0.48167485  0.93943347  0.84085287     0.92800
C1701       C  0.91537968  0.00350891  0.81160416     0.84900
C1702       C  0.56113975  0.95742189  0.80891642     0.91200
O1703       O  0.57995112  0.19778471  0.80480331    -0.72500
O1704       O  0.97225886  0.22108605  0.80222581    -0.73500
O1705       O  0.02656273  0.23051988  0.77532817    -0.62100
O1706       O  0.02923974  0.23078939  0.82758418    -0.70600
O1707       O  0.02079821  0.29105497  0.82694335    -0.70100
O1708       O  0.01463228  0.29013302  0.77514834    -0.61400
O1709       O  0.96326154  0.28109599  0.80246072    -0.73900
O1710       O  0.58295028  0.25799722  0.80763298    -0.72700
Cu1711     Cu  0.02823343  0.22850867  0.80150675     1.04600
Cu1712     Cu  0.01768527  0.29258278  0.80101885     1.04300
C1713       C  0.59913833  0.22700229  0.80673232     0.93600
C1714       C  0.95030626  0.24843391  0.80276147     0.92800
C1715       C  0.01932819  0.26035502  0.76706930     0.84900
C1716       C  0.02546303  0.26105697  0.83540100     0.91200
O1717       O  0.73732235  0.45770224  0.77397702    -0.72500
O1718       O  0.73905619  0.43635786  0.82597618    -0.73500
O1719       O  0.68218059  0.44936009  0.80037894    -0.62100
O1720       O  0.79441380  0.44512178  0.79968893    -0.70600
O1721       O  0.78650276  0.04269049  0.80657811    -0.70100
O1722       O  0.67713974  0.02411524  0.81134186    -0.61400
O1723       O  0.73813585  0.02680124  0.83474906    -0.73900
O1724       O  0.72444811  0.03922030  0.78298015    -0.72700
Cu1725     Cu  0.73807538  0.44498178  0.79982670     1.04600
Cu1726     Cu  0.73134878  0.03516395  0.80898107     1.04300
C1727       C  0.72733930  0.01168256  0.77309566     0.93600
C1728       C  0.74331763  0.99483522  0.84133665     0.92800
C1729       C  0.66324393  0.99210166  0.80979926     0.84900
C1730       C  0.80883396  0.01585348  0.80561607     0.91200
O1731       O  0.77768644  0.18325398  0.77820524    -0.72500
O1732       O  0.78117551  0.16113625  0.82956352    -0.73500
O1733       O  0.72245001  0.16976073  0.80427673    -0.62100
O1734       O  0.83493058  0.17665683  0.80331616    -0.70600
O1735       O  0.83097570  0.23639655  0.80742545    -0.70100
O1736       O  0.71955964  0.22898368  0.80976108    -0.61400
O1737       O  0.77916868  0.22056493  0.83485682    -0.73900
O1738       O  0.77187230  0.24281584  0.78254053    -0.72700
Cu1739     Cu  0.77899998  0.17069694  0.80369974     1.04600
Cu1740     Cu  0.77518494  0.23423571  0.80888388     1.04300
C1741       C  0.77467655  0.21594536  0.77218360     0.93600
C1742       C  0.78180651  0.18720881  0.84032540     0.92800
C1743       C  0.70325203  0.19852491  0.80696370     0.84900
C1744       C  0.85058170  0.20794973  0.80494024     0.91200
O1745       O  0.55734385  0.52253929  0.32687628    -0.72500
O1746       O  0.53599022  0.52083048  0.27586734    -0.73500
O1747       O  0.54354793  0.06799803  0.30475805    -0.62100
O1748       O  0.56203101  0.46788257  0.30096711    -0.70600
O1749       O  0.99164626  0.45792264  0.30772353    -0.70100
O1750       O  0.96063755  0.06469120  0.30444453    -0.61400
O1751       O  0.97982901  0.51537199  0.28313016    -0.73900
O1752       O  0.00257544  0.50960418  0.33434587    -0.72700
Cu1753     Cu  0.54850990  0.52216537  0.30120356     1.04600
Cu1754     Cu  0.98901236  0.51304057  0.30894749     1.04300
C1755       C  0.03598501  0.50865662  0.33943516     0.93600
C1756       C  0.00596977  0.51811550  0.27219373     0.92800
C1757       C  0.98686830  0.08777632  0.30628417     0.84900
C1758       C  0.02173278  0.44174927  0.30434916     0.91200
O1759       O  0.55743008  0.26845927  0.27846027    -0.72500
O1760       O  0.58179504  0.26654315  0.32934213    -0.73500
O1761       O  0.57243456  0.21023733  0.30340901    -0.62100
O1762       O  0.56367084  0.32290163  0.30433310    -0.70600
O1763       O  0.96592151  0.31932771  0.30248868    -0.70100
O1764       O  0.97115021  0.20765664  0.30254499    -0.61400
O1765       O  0.96010900  0.26126993  0.32813858    -0.73900
O1766       O  0.97549969  0.26450162  0.27654027    -0.72700
Cu1767     Cu  0.57088870  0.26700436  0.30370451     1.04600
Cu1768     Cu  0.96606446  0.26321128  0.30226521     1.04300
C1769       C  0.00771994  0.26836271  0.27028118     0.93600
C1770       C  0.98760648  0.26090988  0.33839813     0.92800
C1771       C  0.00270218  0.19272811  0.30438473     0.84900
C1772       C  0.99515072  0.33841812  0.30470745     0.91200
O1773       O  0.77614557  0.51406110  0.27854976    -0.72500
O1774       O  0.79966162  0.51291601  0.32939665    -0.73500
O1775       O  0.78629742  0.45670856  0.30392754    -0.62100
O1776       O  0.75198054  0.06027049  0.31341193    -0.70600
O1777       O  0.69541700  0.07462882  0.30524507    -0.70100
O1778       O  0.72696426  0.45937538  0.30985803    -0.61400
O1779       O  0.74040211  0.51382016  0.33579236    -0.73900
O1780       O  0.71647311  0.51574966  0.28391514    -0.72700
Cu1781     Cu  0.78921822  0.51350010  0.30380211     1.04600
Cu1782     Cu  0.72569984  0.51450025  0.31009536     1.04300
C1783       C  0.74304564  0.51493027  0.27309945     0.93600
C1784       C  0.77413920  0.51366237  0.34061362     0.92800
C1785       C  0.75548674  0.44043732  0.30671616     0.84900
C1786       C  0.72831564  0.08448006  0.30904855     0.91200
O1787       O  0.73356862  0.32362747  0.30470174    -0.72500
O1788       O  0.70622660  0.21632490  0.30749694    -0.73500
O1789       O  0.73200304  0.26904904  0.33192070    -0.62100
O1790       O  0.70943059  0.26908372  0.28006488    -0.70600
O1791       O  0.76768439  0.25615236  0.27487532    -0.70100
O1792       O  0.78958687  0.25399639  0.32631538    -0.61400
O1793       O  0.76364067  0.20056491  0.30207935    -0.73900
O1794       O  0.79164519  0.31012576  0.29961865    -0.72700
Cu1795     Cu  0.71841523  0.27017536  0.30620618     1.04600
Cu1796     Cu  0.78016819  0.25476701  0.30050611     1.04300
C1797       C  0.76665850  0.33414578  0.30209212     0.93600
C1798       C  0.73015434  0.19147181  0.30520066     0.92800
C1799       C  0.76445937  0.26112407  0.33719109     0.84900
C1800       C  0.73501442  0.26169050  0.26935606     0.91200
O1801       O  0.56227922  0.53446368  0.39862465    -0.72500
O1802       O  0.56619002  0.52287394  0.45062352    -0.73500
O1803       O  0.61575055  0.50870388  0.42305325    -0.62100
O1804       O  0.52892139  0.05550655  0.42876628    -0.70600
O1805       O  0.89717909  0.02751754  0.42320135    -0.70100
O1806       O  0.03020516  0.43517301  0.42708919    -0.61400
O1807       O  0.03166069  0.48871156  0.45224435    -0.73900
O1808       O  0.02423596  0.49028823  0.40057732    -0.72700
Cu1809     Cu  0.56532487  0.53059814  0.42469163     1.04600
Cu1810     Cu  0.02603011  0.48912990  0.42654168     1.04300
C1811       C  0.05327907  0.49309746  0.39148286     0.93600
C1812       C  0.06267815  0.48867941  0.46000980     0.92800
C1813       C  0.06095516  0.41864529  0.42681951     0.84900
C1814       C  0.89907418  0.06230730  0.42197101     0.91200
O1815       O  0.61714890  0.26583401  0.39814700    -0.72500
O1816       O  0.63756631  0.27146562  0.45044157    -0.73500
O1817       O  0.60035137  0.22353177  0.42814226    -0.62100
O1818       O  0.65748812  0.31506072  0.42055688    -0.70600
O1819       O  0.97336329  0.29098197  0.42822148    -0.70100
O1820       O  0.89217993  0.22111443  0.41851407    -0.61400
O1821       O  0.92461512  0.24968947  0.44912962    -0.73900
O1822       O  0.94221290  0.26341257  0.39763763    -0.72700
Cu1823     Cu  0.63002180  0.26800810  0.42414395     1.04600
Cu1824     Cu  0.93164686  0.25782305  0.42333190     1.04300
C1825       C  0.96598182  0.24367741  0.39006942     0.93600
C1826       C  0.94303345  0.22571714  0.45775933     0.92800
C1827       C  0.90025096  0.18740905  0.41744109     0.84900
C1828       C  0.00650112  0.28017562  0.42971854     0.91200
O1829       O  0.83347216  0.53085669  0.39744842    -0.72500
O1830       O  0.86052803  0.52439476  0.44905423    -0.73500
O1831       O  0.88086333  0.48556942  0.41852131    -0.62100
O1832       O  0.68837110  0.04540475  0.43205863    -0.70600
O1833       O  0.63566485  0.07412770  0.42713045    -0.70100
O1834       O  0.83240389  0.44914672  0.42261266    -0.61400
O1835       O  0.81353879  0.48629471  0.45266047    -0.73900
O1836       O  0.78581157  0.49419578  0.40248930    -0.72700
Cu1837     Cu  0.84937225  0.52914109  0.42305041     1.04600
Cu1838     Cu  0.79852153  0.48927651  0.42774298     1.04300
C1839       C  0.80507945  0.51351640  0.39200905     0.93600
C1840       C  0.84051853  0.50409599  0.45898363     0.92800
C1841       C  0.86632733  0.45380051  0.41914671     0.84900
C1842       C  0.66993752  0.07496233  0.43037731     0.91200
O1843       O  0.80889200  0.32377020  0.42117687    -0.72500
O1844       O  0.73817431  0.24034792  0.42757624    -0.73500
O1845       O  0.77936723  0.28448230  0.45036018    -0.62100
O1846       O  0.76585976  0.28067122  0.39865598    -0.70600
O1847       O  0.81284879  0.24249894  0.39673971    -0.70100
O1848       O  0.82575193  0.24555556  0.44939573    -0.61400
O1849       O  0.78587516  0.20286055  0.42604550    -0.73900
O1850       O  0.85549866  0.28482804  0.42019258    -0.72700
Cu1851     Cu  0.77153362  0.28381471  0.42449830     1.04600
Cu1852     Cu  0.82161243  0.24265332  0.42301568     1.04300
C1853       C  0.84315720  0.31723699  0.41957820     0.93600
C1854       C  0.75165424  0.20807806  0.42801063     0.92800
C1855       C  0.80366282  0.26509362  0.45820148     0.84900
C1856       C  0.78685096  0.26096550  0.38954759     0.91200
O1857       O  0.02015641  0.12414775  0.04385833    -0.72500
O1858       O  0.00608293  0.11514207  0.09621360    -0.73500
O1859       O  0.50867323  0.97863039  0.06587343    -0.62100
O1860       O  0.97046123  0.08882089  0.06639569    -0.70600
O1861       O  0.97270842  0.41436523  0.07287720    -0.70100
O1862       O  0.56588683  0.50602942  0.06838683    -0.61400
O1863       O  0.01048041  0.46187373  0.09597711    -0.73900
O1864       O  0.00651379  0.44966736  0.04405955    -0.72700
Cu1865     Cu  0.01226249  0.12189265  0.07000307     1.04600
Cu1866     Cu  0.01004499  0.45422328  0.07008346     1.04300
C1867       C  0.98398441  0.46853296  0.03482981     0.93600
C1868       C  0.98914680  0.48479327  0.10311528     0.92800
C1869       C  0.56724587  0.54098819  0.06741878     0.84900
C1870       C  0.93887331  0.42271207  0.07241803     0.91200
O1871       O  0.97163495  0.28899292  0.09043546    -0.72500
O1872       O  0.98164715  0.29073823  0.03824837    -0.73500
O1873       O  0.95467590  0.24009234  0.06366207    -0.62100
O1874       O  0.55598410  0.24573192  0.06875184    -0.70600
O1875       O  0.53701046  0.18803921  0.07157959    -0.70100
O1876       O  0.00929730  0.21364473  0.06656211    -0.61400
O1877       O  0.03598612  0.26405491  0.04071356    -0.73900
O1878       O  0.02662412  0.26329205  0.09274870    -0.72700
Cu1879     Cu  0.97453560  0.29084380  0.06419978     1.04600
Cu1880     Cu  0.03315047  0.26287578  0.06686596     1.04300
C1881       C  0.99756210  0.27551573  0.09974483     0.93600
C1882       C  0.01052738  0.27790919  0.03122688     0.92800
C1883       C  0.97450672  0.21151807  0.06547506     0.84900
C1884       C  0.56281257  0.21157876  0.06991987     0.91200
O1885       O  0.75165502  0.03285896  0.09620205    -0.72500
O1886       O  0.74892177  0.02208972  0.04463863    -0.73500
O1887       O  0.69679618  0.01832217  0.07119959    -0.62100
O1888       O  0.80412404  0.03574276  0.06892000    -0.70600
O1889       O  0.77170203  0.40745323  0.07178482    -0.70100
O1890       O  0.69833808  0.48782179  0.06749710    -0.61400
O1891       O  0.73462034  0.44247137  0.04339581    -0.73900
O1892       O  0.73526723  0.45366495  0.09566204    -0.72700
Cu1893     Cu  0.75010551  0.02938110  0.07022608     1.04600
Cu1894     Cu  0.73336288  0.44643331  0.06963660     1.04300
C1895       C  0.75681197  0.47702798  0.10257296     0.93600
C1896       C  0.75632276  0.46194918  0.03395470     0.92800
C1897       C  0.70782852  0.52144379  0.06595284     0.84900
C1898       C  0.80530619  0.41702766  0.07123216     0.91200
O1899       O  0.73662563  0.19616657  0.06623262    -0.72500
O1900       O  0.84113071  0.17538632  0.07323056    -0.73500
O1901       O  0.79473171  0.17839924  0.04434088    -0.62100
O1902       O  0.78226508  0.19500051  0.09525535    -0.70600
O1903       O  0.77021532  0.13597073  0.09971820    -0.70100
O1904       O  0.78183773  0.11928836  0.04719213    -0.61400
O1905       O  0.83006732  0.11563265  0.07645439    -0.73900
O1906       O  0.72337744  0.13719242  0.07027433    -0.72700
Cu1907     Cu  0.78925905  0.18803899  0.06968840     1.04600
Cu1908     Cu  0.77602995  0.12472608  0.07364326     1.04300
C1909       C  0.71326536  0.17018845  0.06742614     0.93600
C1910       C  0.85236305  0.14249432  0.07501604     0.92800
C1911       C  0.78992348  0.14713964  0.03748524     0.84900
C1912       C  0.77288671  0.16874626  0.10545365     0.91200
O1913       O  0.00189912  0.08953562  0.16779762    -0.72500
O1914       O  0.99996356  0.05986111  0.21872746    -0.73500
O1915       O  0.55438259  0.02380673  0.18396461    -0.62100
O1916       O  0.94415618  0.08035099  0.19365701    -0.70600
O1917       O  0.94837923  0.48808328  0.19234920    -0.70100
O1918       O  0.56032710  0.49088129  0.18867329    -0.61400
O1919       O  0.00683707  0.49581859  0.21713201    -0.73900
O1920       O  0.00147288  0.47727391  0.16584722    -0.72700
Cu1921     Cu  0.00063547  0.07657551  0.19349341     1.04600
Cu1922     Cu  0.00428537  0.48469446  0.19165219     1.04300
C1923       C  0.99954391  0.50424230  0.15510740     0.93600
C1924       C  0.01054348  0.52850998  0.22254703     0.92800
C1925       C  0.57829217  0.52096067  0.18673858     0.84900
C1926       C  0.93169637  0.51876068  0.19036020     0.91200
O1927       O  0.99625782  0.28511387  0.21413415    -0.72500
O1928       O  0.99197617  0.29527092  0.16193884    -0.73500
O1929       O  0.93806486  0.28702258  0.18873117    -0.62100
O1930       O  0.55612300  0.26438564  0.19005648    -0.70600
O1931       O  0.53896995  0.20619100  0.19204222    -0.70100
O1932       O  0.93935528  0.22658132  0.18641121    -0.61400
O1933       O  0.99369757  0.23473549  0.15976755    -0.73900
O1934       O  0.99556743  0.22456831  0.21204164    -0.72700
Cu1935     Cu  0.99390054  0.29209971  0.18806906     1.04600
Cu1936     Cu  0.99493360  0.22740419  0.18583848     1.04300
C1937       C  0.99598327  0.25322850  0.22130584     0.93600
C1938       C  0.99257299  0.26667695  0.15267950     0.92800
C1939       C  0.92114211  0.25622480  0.18777251     0.84900
C1940       C  0.56457325  0.23037045  0.19095574     0.91200
O1941       O  0.75528288  0.46589191  0.21696938    -0.72500
O1942       O  0.75435339  0.45923133  0.16488436    -0.73500
O1943       O  0.80990914  0.46254799  0.19103003    -0.62100
O1944       O  0.69890159  0.46277015  0.19092589    -0.70600
O1945       O  0.68964706  0.04997000  0.18906966    -0.70100
O1946       O  0.80098140  0.05619616  0.19255424    -0.61400
O1947       O  0.74904652  0.04807187  0.16504862    -0.73900
O1948       O  0.74030006  0.05748965  0.21707380    -0.72700
Cu1949     Cu  0.75449227  0.46062081  0.19102620     1.04600
Cu1950     Cu  0.74496494  0.05504159  0.19089788     1.04300
C1951       C  0.75467034  0.49698491  0.22427530     0.93600
C1952       C  0.75537816  0.48842911  0.15550903     0.92800
C1953       C  0.82790315  0.49268666  0.19054287     0.84900
C1954       C  0.68121813  0.49286942  0.18933610     0.91200
O1955       O  0.74500672  0.18099147  0.16787145    -0.72500
O1956       O  0.74067653  0.21931017  0.21684938    -0.73500
O1957       O  0.68575786  0.20448467  0.19095670    -0.62100
O1958       O  0.79890112  0.19845826  0.19366686    -0.70600
O1959       O  0.80280353  0.25531245  0.18322745    -0.70100
O1960       O  0.69281738  0.26143785  0.18107365    -0.61400
O1961       O  0.74791656  0.27625369  0.20689304    -0.73900
O1962       O  0.74996357  0.23778081  0.15742727    -0.72700
Cu1963     Cu  0.74224641  0.19875976  0.19265156     1.04600
Cu1964     Cu  0.74818570  0.25954524  0.18175992     1.04300
C1965       C  0.74968761  0.20307957  0.15502219     0.93600
C1966       C  0.74485208  0.25348551  0.21965399     0.92800
C1967       C  0.67173275  0.23516322  0.18594199     0.84900
C1968       C  0.81843459  0.22626505  0.18889967     0.91200
O1969       O  0.56498737  0.48559208  0.92329739    -0.72500
O1970       O  0.96340058  0.38066146  0.92842774    -0.73500
O1971       O  0.51456437  0.45450483  0.89938973    -0.62100
O1972       O  0.99936357  0.42611145  0.95299428    -0.70600
O1973       O  0.02231009  0.11533088  0.95084734    -0.70100
O1974       O  0.45573511  0.94509716  0.90111417    -0.61400
O1975       O  0.96916287  0.07822110  0.93152677    -0.73900
O1976       O  0.50559160  0.95681958  0.92807675    -0.72700
Cu1977     Cu  0.51766491  0.45813360  0.92526493     1.04600
Cu1978     Cu  0.45269463  0.94445635  0.92704576     1.04300
C1979       C  0.56698764  0.52049651  0.92181388     0.93600
C1980       C  0.92967373  0.38942594  0.92765223     0.92800
C1981       C  0.50013283  0.47975783  0.88999304     0.84900
C1982       C  0.97769999  0.44877167  0.96015436     0.91200
O1983       O  0.99766231  0.29427578  0.94692692    -0.72500
O1984       O  0.99818792  0.28246420  0.89518359    -0.73500
O1985       O  0.97480979  0.23975788  0.92385821    -0.62100
O1986       O  0.56652157  0.23158826  0.92587877    -0.70600
O1987       O  0.55017826  0.17288465  0.92604247    -0.70100
O1988       O  0.02886732  0.21170036  0.92547953    -0.61400
O1989       O  0.05272849  0.25561420  0.89707885    -0.73900
O1990       O  0.05136430  0.26617366  0.94890426    -0.72700
Cu1991     Cu  0.99602132  0.28952923  0.92092060     1.04600
Cu1992     Cu  0.05407622  0.26019623  0.92300610     1.04300
C1993       C  0.02387405  0.28111329  0.95617719     0.93600
C1994       C  0.02560967  0.26726015  0.88805378     0.92800
C1995       C  0.99394324  0.21065440  0.92534146     0.84900
C1996       C  0.57488836  0.19774213  0.92627380     0.91200
O1997       O  0.74687115  0.01644796  0.90241626    -0.72500
O1998       O  0.74362829  0.01377032  0.95434453    -0.73500
O1999       O  0.79852813  0.02630709  0.92986439    -0.62100
O2000       O  0.69221604  0.00314073  0.92755721    -0.70600
O2001       O  0.69524287  0.47043614  0.92485933    -0.70100
O2002       O  0.76328612  0.38554406  0.92485144    -0.61400
O2003       O  0.73160038  0.42917924  0.95105891    -0.73900
O2004       O  0.72645417  0.42829671  0.89837988    -0.72700
Cu2005     Cu  0.74490029  0.01701731  0.92846387     1.04600
Cu2006     Cu  0.72751058  0.42698053  0.92480575     1.04300
C2007       C  0.74803113  0.44901666  0.88949614     0.93600
C2008       C  0.75505639  0.44977683  0.95859193     0.92800
C2009       C  0.79740070  0.39303688  0.92431497     0.84900
C2010       C  0.70658639  0.50356595  0.92413192     0.91200
O2011       O  0.84733821  0.11453937  0.92508415    -0.72500
O2012       O  0.73929846  0.13176874  0.92658539    -0.73500
O2013       O  0.79144928  0.13121780  0.89929513    -0.62100
O2014       O  0.79393947  0.11706938  0.95243857    -0.70600
O2015       O  0.80329436  0.17682618  0.95425471    -0.70100
O2016       O  0.80127600  0.19073295  0.90244985    -0.61400
O2017       O  0.74961123  0.19143180  0.92912708    -0.73900
O2018       O  0.85567569  0.17456706  0.92787327    -0.72700
Cu2019     Cu  0.79277358  0.12135338  0.92570952     1.04600
Cu2020     Cu  0.80293273  0.18525065  0.92849556     1.04300
C2021       C  0.86837863  0.14225084  0.92664628     0.93600
C2022       C  0.72752967  0.16441782  0.92806917     0.92800
C2023       C  0.79492147  0.16363201  0.89268093     0.84900
C2024       C  0.79848217  0.14559475  0.96170907     0.91200
O2025       O  0.55302636  0.49920539  0.59415182    -0.72500
O2026       O  0.56247069  0.50579166  0.54223292    -0.73500
O2027       O  0.52429902  0.04036028  0.56725712    -0.62100
O2028       O  0.60784427  0.47971382  0.56999377    -0.70600
O2029       O  0.01922862  0.43120047  0.56563330    -0.70100
O2030       O  0.88702378  0.01436201  0.57364426    -0.61400
O2031       O  0.02705513  0.48882523  0.54198697    -0.73900
O2032       O  0.01245075  0.48170229  0.59306810    -0.72700
Cu2033     Cu  0.55899045  0.50437908  0.56830090     1.04600
Cu2034     Cu  0.01806483  0.48518761  0.56732538     1.04300
C2035       C  0.04011072  0.48079643  0.60319889     0.93600
C2036       C  0.05886271  0.48744611  0.53517545     0.92800
C2037       C  0.88881242  0.04896631  0.57538981     0.84900
C2038       C  0.04877289  0.41258778  0.56658952     0.91200
O2039       O  0.88334482  0.20830195  0.57151174    -0.72500
O2040       O  0.96181788  0.28198350  0.56382326    -0.73500
O2041       O  0.91671054  0.24177305  0.54162713    -0.62100
O2042       O  0.93063874  0.24924792  0.59373969    -0.70600
O2043       O  0.62642076  0.23725447  0.59621014    -0.70100
O2044       O  0.64012716  0.25529171  0.54404946    -0.61400
O2045       O  0.66602008  0.29004700  0.57465699    -0.73900
O2046       O  0.60276503  0.20346754  0.56542642    -0.72700
Cu2047     Cu  0.92160218  0.24674457  0.56772454     1.04600
Cu2048     Cu  0.63563683  0.24534422  0.57015956     1.04300
C2049       C  0.89216903  0.17473193  0.57217675     0.93600
C2050       C  0.99539407  0.27279442  0.56261084     0.92800
C2051       C  0.93703059  0.21988842  0.53316356     0.84900
C2052       C  0.95458676  0.22901581  0.60138904     0.91200
O2053       O  0.86024766  0.51877398  0.54400021    -0.72500
O2054       O  0.83259590  0.52091177  0.59549336    -0.73500
O2055       O  0.87920227  0.47638540  0.57442031    -0.62100
O2056       O  0.68359652  0.04021253  0.56630058    -0.70600
O2057       O  0.63064140  0.06874507  0.57018431    -0.70100
O2058       O  0.82993540  0.44155627  0.56992359    -0.61400
O2059       O  0.78396488  0.48619449  0.59005834    -0.73900
O2060       O  0.81233912  0.48233429  0.53987341    -0.72700
Cu2061     Cu  0.84892409  0.52108269  0.56996150     1.04600
Cu2062     Cu  0.79704434  0.48320456  0.56477071     1.04300
C2063       C  0.83987457  0.50010985  0.53382412     0.93600
C2064       C  0.80332172  0.50440682  0.60068992     0.92800
C2065       C  0.86396439  0.44505812  0.57354350     0.84900
C2066       C  0.66495463  0.06965478  0.56707347     0.91200
O2067       O  0.81130147  0.23187162  0.59519011    -0.72500
O2068       O  0.82308145  0.23940884  0.54270131    -0.73500
O2069       O  0.85386042  0.27558522  0.57185429    -0.62100
O2070       O  0.78254189  0.19531166  0.56601788    -0.70600
O2071       O  0.73558866  0.23393788  0.56488512    -0.70100
O2072       O  0.80791961  0.31537500  0.57080304    -0.61400
O2073       O  0.77717818  0.27897683  0.54168726    -0.73900
O2074       O  0.76518391  0.27132966  0.59359636    -0.72700
Cu2075     Cu  0.81917702  0.23423869  0.56898319     1.04600
Cu2076     Cu  0.76990507  0.27641593  0.56765808     1.04300
C2077       C  0.78621849  0.25043585  0.60256152     0.93600
C2078       C  0.80139029  0.26016766  0.53388126     0.92800
C2079       C  0.84204951  0.30812230  0.57249097     0.84900
C2080       C  0.74830105  0.20140809  0.56451871     0.91200
C2081       C  0.87593465  0.39250244  0.59188012    -0.13000
C2082       C  0.88446903  0.41161297  0.57653247     0.09200
C2083       C  0.89319554  0.39206145  0.56168136    -0.13000
C2084       C  0.88417310  0.35498687  0.56097299    -0.13000
C2085       C  0.86754482  0.33795328  0.57529455     0.09200
C2086       C  0.86660635  0.35557667  0.59117584    -0.13000
H2087       H  0.86926690  0.40733120  0.60345547     0.13200
H2088       H  0.89994754  0.40657088  0.54974092     0.13200
H2089       H  0.88514554  0.34134456  0.54866142     0.13200
H2090       H  0.85396359  0.34236672  0.60233917     0.13200
C2091       C  0.66855620  0.13725342  0.57080862    -0.13000
C2092       C  0.68360951  0.10481012  0.56447482     0.09200
C2093       C  0.71790151  0.10566546  0.55635642    -0.13000
C2094       C  0.73792502  0.13797953  0.55549643    -0.13000
C2095       C  0.72398506  0.16990599  0.56275369     0.09200
C2096       C  0.68879928  0.16976337  0.56998335    -0.13000
H2097       H  0.64207260  0.13708484  0.57712230     0.13200
H2098       H  0.72974866  0.08110247  0.55110262     0.13200
H2099       H  0.76495616  0.13769879  0.54970630     0.13200
H2100       H  0.67800468  0.19408444  0.57587565     0.13200
C2101       C  0.02689001  0.36343138  0.54823640    -0.13000
C2102       C  0.04661410  0.37378695  0.56291891     0.09200
C2103       C  0.65023402  0.41137037  0.58898139    -0.13000
C2104       C  0.66402999  0.37594001  0.59104103    -0.13000
C2105       C  0.02186132  0.30215389  0.56010371     0.09200
C2106       C  0.01465657  0.32764520  0.54679770    -0.13000
H2107       H  0.01820954  0.38374685  0.53866986     0.13200
H2108       H  0.63840366  0.42450291  0.60009389     0.13200
H2109       H  0.66180983  0.36253630  0.60362548     0.13200
H2110       H  0.99607097  0.32093680  0.53633684     0.13200
C2111       C  0.54800039  0.10802597  0.55575522    -0.13000
C2112       C  0.85602779  0.07159116  0.57672875     0.09200
C2113       C  0.85499801  0.09183788  0.59196961    -0.13000
C2114       C  0.86094675  0.12963062  0.59083656    -0.13000
C2115       C  0.86417094  0.14650937  0.57449223     0.09200
C2116       C  0.56427816  0.14225338  0.55472526    -0.13000
H2117       H  0.56272399  0.08495878  0.55062586     0.13200
H2118       H  0.85969225  0.07816489  0.60434334     0.13200
H2119       H  0.86905442  0.14410676  0.60234955     0.13200
H2120       H  0.59136439  0.14478404  0.54907479     0.13200
C2121       C  0.96017345  0.16158379  0.91134422    -0.13000
C2122       C  0.97423502  0.17616876  0.92663775     0.09200
C2123       C  0.95818121  0.16687370  0.94252843    -0.13000
C2124       C  0.92505165  0.14783432  0.94285329    -0.13000
C2125       C  0.90791098  0.13858414  0.92727151     0.09200
C2126       C  0.92697120  0.14251403  0.91167031    -0.13000
H2127       H  0.97204560  0.16928539  0.89896255     0.13200
H2128       H  0.96843807  0.17865410  0.95437011     0.13200
H2129       H  0.91022205  0.14548317  0.95495161     0.13200
H2130       H  0.91366695  0.13611940  0.89953674     0.13200
C2131       C  0.62532337  0.15218460  0.92406100    -0.13000
C2132       C  0.61356571  0.18796680  0.92724192     0.09200
C2133       C  0.63921590  0.21515521  0.93136527    -0.13000
C2134       C  0.67617857  0.20704327  0.93194780    -0.13000
C2135       C  0.68822702  0.17160007  0.92837237     0.09200
C2136       C  0.66262771  0.14401692  0.92460132    -0.13000
H2137       H  0.60585269  0.13082416  0.92089032     0.13200
H2138       H  0.63078911  0.24286691  0.93411538     0.13200
H2139       H  0.69532214  0.22874404  0.93505621     0.13200
H2140       H  0.67143324  0.11645757  0.92179686     0.13200
C2141       C  0.90644289  0.04684704  0.94585348    -0.13000
C2142       C  0.90072223  0.36180440  0.92786743     0.09200
C2143       C  0.88350863  0.35574769  0.91192987    -0.13000
C2144       C  0.84533681  0.35742472  0.91081418    -0.13000
C2145       C  0.82499719  0.36437324  0.92571342     0.09200
C2146       C  0.86981008  0.03764383  0.94375138    -0.13000
H2147       H  0.91345579  0.07113556  0.95300430     0.13200
H2148       H  0.89922751  0.35754399  0.90007062     0.13200
H2149       H  0.83271635  0.36041832  0.89815656     0.13200
H2150       H  0.84901702  0.05426312  0.94974595     0.13200
C2151       C  0.66147809  0.53883754  0.90797064    -0.13000
C2152       C  0.67874927  0.53187264  0.92392283     0.09200
C2153       C  0.63237484  0.92323011  0.92840211    -0.13000
C2154       C  0.59541714  0.91402502  0.92863621    -0.13000
C2155       C  0.60302921  0.53746938  0.92245720     0.09200
C2156       C  0.62331984  0.54114353  0.90720752    -0.13000
H2157       H  0.67651071  0.53570761  0.89602783     0.13200
H2158       H  0.65240660  0.90136999  0.92864146     0.13200
H2159       H  0.58781110  0.88529399  0.92898676     0.13200
H2160       H  0.60971703  0.54045930  0.89473452     0.13200
C2161       C  0.88021535  0.25573254  0.18786954    -0.16000
C2162       C  0.85940239  0.22500441  0.18973433    -0.31200
H2163       H  0.86669134  0.28205632  0.18638457     0.13000
H2164       H  0.87254290  0.19869020  0.19192960     0.13600
C2165       C  0.60420584  0.21891682  0.19070393    -0.16000
C2166       C  0.63125825  0.24258739  0.18597140    -0.31200
H2167       H  0.61106510  0.19081293  0.19423020     0.13000
H2168       H  0.62342347  0.27025384  0.18207792     0.13600
C2169       C  0.89079417  0.52090898  0.19053385    -0.16000
C2170       C  0.86881314  0.49108364  0.19106976    -0.31200
H2171       H  0.87025372  0.08328837  0.19211076     0.13000
H2172       H  0.88125014  0.46407674  0.19173502     0.13600
C2173       C  0.61923513  0.52172397  0.18670515    -0.16000
C2174       C  0.64027217  0.49166456  0.18903580    -0.31200
H2175       H  0.63246860  0.54824306  0.18490806     0.13000
H2176       H  0.61929803  0.04626554  0.18636368     0.13600
C2177       C  0.80027392  0.17686642  0.00838435    -0.13000
C2178       C  0.79335048  0.14465078  0.01815705     0.09200
C2179       C  0.78917562  0.11162099  0.00913110    -0.13000
C2180       C  0.79127576  0.11123441  0.99082783    -0.13000
C2181       C  0.79765482  0.14387931  0.98116518     0.09200
C2182       C  0.80236509  0.17649093  0.99034699    -0.13000
H2183       H  0.80373576  0.20291354  0.01467038     0.13200
H2184       H  0.78407433  0.08621893  0.01619080     0.13200
H2185       H  0.78759457  0.08554762  0.98425880     0.13200
H2186       H  0.80734600  0.20226685  0.98356389     0.13200
C2187       C  0.75643765  0.18850923  0.13777953    -0.12900
C2188       C  0.76402688  0.17736352  0.12339603    -0.14400
C2189       C  0.73850284  0.01601543  0.99059863    -0.13000
C2190       C  0.75610008  0.45170400  0.97793412     0.09200
C2191       C  0.73063236  0.43218101  0.98826327    -0.13000
C2192       C  0.73083860  0.43522830  0.00637516    -0.13000
C2193       C  0.75646540  0.45795343  0.01469985     0.09200
C2194       C  0.73952097  0.01766672  0.00861264    -0.13000
H2195       H  0.72756727  0.03922657  0.98334611     0.13200
H2196       H  0.71022191  0.41476544  0.98233711     0.13200
H2197       H  0.71062628  0.42001336  0.01385145     0.13200
H2198       H  0.72916708  0.04201980  0.01467952     0.13200
C2199       C  0.75596794  0.48551903  0.13679118    -0.12900
C2200       C  0.75643288  0.48179422  0.12119103    -0.14400
C2201       C  0.93719397  0.16170478  0.05379353    -0.13000
C2202       C  0.95575942  0.17665677  0.06785118     0.09200
C2203       C  0.94561747  0.16660784  0.08476438    -0.13000
C2204       C  0.91348824  0.14658964  0.08761239    -0.13000
C2205       C  0.89158442  0.13701432  0.07350836     0.09200
C2206       C  0.90539539  0.14123709  0.05666489    -0.13000
H2207       H  0.94445820  0.16975771  0.04068127     0.13200
H2208       H  0.95945138  0.17865477  0.09572080     0.13200
H2209       H  0.90285052  0.14413028  0.10065060     0.13200
H2210       H  0.88839210  0.13445244  0.04563636     0.13200
C2211       C  0.61069486  0.16294140  0.07122476    -0.13000
C2212       C  0.60090536  0.19979824  0.06867297     0.09200
C2213       C  0.62782894  0.22584943  0.06425831    -0.13000
C2214       C  0.66416271  0.21561301  0.06304604    -0.13000
C2215       C  0.67435243  0.17916563  0.06634545     0.09200
C2216       C  0.64737073  0.15264800  0.07009677    -0.13000
H2217       H  0.59021204  0.14231083  0.07437255     0.13200
H2218       H  0.62095646  0.25435187  0.06184954     0.13200
H2219       H  0.68437152  0.23657352  0.05997558     0.13200
H2220       H  0.65468256  0.12430681  0.07264340     0.13200
C2221       C  0.98841899  0.29762272  0.00159788    -0.13000
C2222       C  0.01457284  0.27940760  0.01203523     0.09200
C2223       C  0.49162666  0.19035716  0.00753903    -0.13000
C2224       C  0.49400294  0.18776711  0.98945989    -0.13000
C2225       C  0.02168019  0.28198151  0.97541524     0.09200
C2226       C  0.99192565  0.29890232  0.98355108    -0.13000
H2227       H  0.96504973  0.31084969  0.00737344     0.13200
H2228       H  0.48395731  0.16625158  0.01509652     0.13200
H2229       H  0.48793319  0.16180108  0.98352120     0.13200
H2230       H  0.97101582  0.31284775  0.97595200     0.13200
C2231       C  0.99406259  0.27350264  0.11837488    -0.12900
C2232       C  0.99262536  0.27057027  0.13401225    -0.14400
C2233       C  0.89263627  0.38598517  0.05808635    -0.13000
C2234       C  0.91047596  0.39464962  0.07356486     0.09200
C2235       C  0.92845627  0.00654196  0.07578063    -0.13000
C2236       C  0.89154587  0.99680128  0.07749190    -0.13000
C2237       C  0.83470248  0.39031234  0.07287495     0.09200
C2238       C  0.85444207  0.38365708  0.05775103    -0.13000
H2239       H  0.90721104  0.38806145  0.04591090     0.13200
H2240       H  0.94845294  0.99507012  0.08474011     0.13200
H2241       H  0.88348254  0.97714000  0.08745016     0.13200
H2242       H  0.84061164  0.38422685  0.04531555     0.13200
C2243       C  0.58328187  0.99819657  0.06821101    -0.13000
C2244       C  0.60325015  0.55812628  0.06685812     0.09200
C2245       C  0.62135302  0.55912701  0.05090566    -0.13000
C2246       C  0.65923510  0.55415313  0.05039733    -0.13000
C2247       C  0.67867884  0.54846855  0.06585629     0.09200
C2248       C  0.62052494  0.00606777  0.06971577    -0.13000
H2249       H  0.56395204  0.02065655  0.06759792     0.13200
H2250       H  0.60580354  0.55787606  0.03895298     0.13200
H2251       H  0.67212941  0.54894880  0.03808701     0.13200
H2252       H  0.62927879  0.03445351  0.06998164     0.13200
C2253       C  0.44443046  0.94818318  0.00694913    -0.13000
C2254       C  0.98223246  0.46341555  0.01571820     0.09200
C2255       C  0.00226351  0.43536613  0.00786977    -0.13000
C2256       C  0.00050803  0.43037777  0.98993147    -0.13000
C2257       C  0.97866757  0.45330528  0.97931146     0.09200
C2258       C  0.44439795  0.94510755  0.98895351    -0.13000
H2259       H  0.43492007  0.97355105  0.01238483     0.13200
H2260       H  0.01930350  0.41711965  0.01559951     0.13200
H2261       H  0.01635543  0.40852548  0.98437852     0.13200
H2262       H  0.43484080  0.96824246  0.98121755     0.13200
C2263       C  0.99563320  0.49722737  0.13680784    -0.12900
C2264       C  0.99224920  0.49109666  0.12150684    -0.14400
C2265       C  0.78364474  0.28957128  0.48693793    -0.13000
C2266       C  0.80503972  0.26479062  0.47758331     0.09200
C2267       C  0.82584114  0.23872860  0.48699531    -0.13000
C2268       C  0.82512604  0.23744398  0.50521670    -0.13000
C2269       C  0.80359255  0.26218465  0.51453081     0.09200
C2270       C  0.78293145  0.28829015  0.50508681    -0.13000
H2271       H  0.76705510  0.30990911  0.48021325     0.13200
H2272       H  0.84222630  0.21887713  0.48026954     0.13200
H2273       H  0.84107746  0.21669674  0.51200992     0.13200
H2274       H  0.76588575  0.30771755  0.51173047     0.13200
C2275       C  0.86807914  0.36678243  0.40121815    -0.13000
C2276       C  0.86834583  0.34769149  0.41707103     0.09200
C2277       C  0.88526560  0.36299531  0.43151190    -0.13000
C2278       C  0.89552179  0.39982561  0.43088720    -0.13000
C2279       C  0.88739633  0.42101743  0.41604947     0.09200
C2280       C  0.87870435  0.40345566  0.40060714    -0.13000
H2281       H  0.85537087  0.35487845  0.38993755     0.13200
H2282       H  0.88584346  0.34818390  0.44379558     0.13200
H2283       H  0.90253242  0.41304683  0.44289337     0.13200
H2284       H  0.87266915  0.41949198  0.38900276     0.13200
C2285       C  0.72464670  0.11132901  0.43816998    -0.13000
C2286       C  0.68870235  0.11027395  0.43175460     0.09200
C2287       C  0.67191621  0.14276302  0.42572783    -0.13000
C2288       C  0.69171884  0.17556217  0.42526377    -0.13000
C2289       C  0.72839864  0.17588447  0.43073277     0.09200
C2290       C  0.74432803  0.14386204  0.43765283    -0.13000
H2291       H  0.73798390  0.08679144  0.44312812     0.13200
H2292       H  0.64413265  0.14252211  0.42071131     0.13200
H2293       H  0.67906509  0.20007141  0.41987187     0.13200
H2294       H  0.77247615  0.14372654  0.44222070     0.13200
C2295       C  0.83325323  0.47060783  0.48725183    -0.13000
C2296       C  0.84700226  0.50123704  0.47802439     0.09200
C2297       C  0.64395605  0.98359662  0.49014864    -0.13000
C2298       C  0.64326353  0.98246459  0.50822796    -0.13000
C2299       C  0.84665034  0.49924473  0.51481359     0.09200
C2300       C  0.83305094  0.46964257  0.50532657    -0.13000
H2301       H  0.82129269  0.44776483  0.48045715     0.13200
H2302       H  0.66401503  0.96687426  0.48371254     0.13200
H2303       H  0.66284196  0.96498401  0.51493568     0.13200
H2304       H  0.82094009  0.44610236  0.51191225     0.13200
C2305       C  0.64466755  0.26554505  0.48816395    -0.13000
C2306       C  0.93906208  0.22263201  0.47698658     0.09200
C2307       C  0.91846579  0.24839369  0.48614826    -0.13000
C2308       C  0.91691229  0.24696711  0.50431498    -0.13000
C2309       C  0.93582632  0.21968238  0.51383156     0.09200
C2310       C  0.64517119  0.26246069  0.50640761    -0.13000
H2311       H  0.66509787  0.25101070  0.48086514     0.13200
H2312       H  0.90407751  0.27018449  0.47929418     0.13200
H2313       H  0.90151273  0.26776396  0.51092194     0.13200
H2314       H  0.66603750  0.24571307  0.51262778     0.13200
C2315       C  0.65894935  0.43770860  0.40475150    -0.13000
C2316       C  0.06080754  0.37935591  0.42997003     0.09200
C2317       C  0.04433720  0.36640436  0.44524065    -0.13000
C2318       C  0.03113820  0.33073963  0.44627997    -0.13000
C2319       C  0.03450763  0.30797529  0.43205986     0.09200
C2320       C  0.66091943  0.39948675  0.40479836    -0.13000
H2321       H  0.65260875  0.45180084  0.39264593     0.13200
H2322       H  0.03822513  0.38499751  0.45559779     0.13200
H2323       H  0.01457089  0.32238735  0.45729343     0.13200
H2324       H  0.65708120  0.38525716  0.39275624     0.13200
C2325       C  0.55259091  0.12379560  0.43825883    -0.13000
C2326       C  0.86712323  0.08460594  0.41756037     0.09200
C2327       C  0.86947133  0.10127339  0.40109077    -0.13000
C2328       C  0.87341722  0.13929042  0.39988782    -0.13000
C2329       C  0.87179441  0.15982368  0.41497888     0.09200
C2330       C  0.56726444  0.15870974  0.43896886    -0.13000
H2331       H  0.56933584  0.10095208  0.44264539     0.13200
H2332       H  0.87798282  0.08529446  0.39014884     0.13200
H2333       H  0.88425862  0.15144151  0.38806126     0.13200
H2334       H  0.59504587  0.16204760  0.44374713     0.13200
C2335       C  0.93159961  0.00151987  0.49028274    -0.13000
C2336       C  0.06318599  0.48837305  0.47925854     0.09200
C2337       C  0.56473206  0.51912141  0.48749243    -0.13000
C2338       C  0.56371483  0.51585311  0.50556773    -0.13000
C2339       C  0.06140326  0.48823497  0.51596295     0.09200
C2340       C  0.93080621  0.99958877  0.50843973    -0.13000
H2341       H  0.91851271  0.97980727  0.48314299     0.13200
H2342       H  0.57336681  0.54494617  0.48165747     0.13200
H2343       H  0.57158650  0.53925560  0.51315735     0.13200
H2344       H  0.91707295  0.97649718  0.51463191     0.13200
C2345       C  0.72619492  0.25649408  0.25068101    -0.16000
C2346       C  0.74936686  0.26615198  0.23776869    -0.31200
H2347       H  0.70062951  0.24269244  0.24754197     0.13000
H2348       H  0.77358212  0.28235796  0.24070450     0.13600
C2349       C  0.78047209  0.25976529  0.37097445    -0.12900
C2350       C  0.77310317  0.26019361  0.35559303    -0.14400
C2351       C  0.75058105  0.39967202  0.30639377    -0.16000
C2352       C  0.77594710  0.37437698  0.30214416    -0.31200
H2353       H  0.72320026  0.38999488  0.30968330     0.13000
H2354       H  0.80361597  0.38310686  0.29886703     0.16800
C2355       C  0.74056721  0.12367664  0.30813687    -0.16000
C2356       C  0.71770204  0.15234151  0.30600674    -0.31200
H2357       H  0.76977802  0.12905062  0.30949266     0.13000
H2358       H  0.68834887  0.14714480  0.30538162     0.13600
C2359       C  0.73590228  0.51495695  0.25411407    -0.16000
C2360       C  0.75910078  0.49805208  0.24333055    -0.31200
H2361       H  0.76289953  0.98634960  0.25441988     0.13000
H2362       H  0.78183281  0.48245094  0.24879911     0.13600
C2363       C  0.79427394  0.51515620  0.37386877    -0.12900
C2364       C  0.78412769  0.51465037  0.35884575    -0.14400
C2365       C  0.01263405  0.27107721  0.25125145    -0.16000
C2366       C  0.99414078  0.24914970  0.24041224    -0.31200
H2367       H  0.53851761  0.28621046  0.24671332     0.13000
H2368       H  0.97732851  0.22703785  0.24573826     0.13600
C2369       C  0.98127010  0.25601084  0.35679396    -0.12900
C2370       C  0.97424554  0.25046909  0.37196341    -0.14400
C2371       C  0.02325260  0.40097304  0.30386909    -0.16000
C2372       C  0.99310276  0.37921486  0.30469896    -0.31200
H2373       H  0.57740686  0.39633450  0.30111572     0.13000
H2374       H  0.96608645  0.39161594  0.30519199     0.13600
C2375       C  0.97952962  0.12783806  0.30519253    -0.16000
C2376       C  0.00729290  0.15239448  0.30512685    -0.31200
H2377       H  0.95131802  0.13716175  0.30422975     0.13000
H2378       H  0.57238769  0.13633022  0.30440185     0.13600
C2379       C  0.99748755  0.51603178  0.25346991    -0.16000
C2380       C  0.01635644  0.53477526  0.24124929    -0.31200
H2381       H  0.03728378  0.04682151  0.24985054     0.13000
H2382       H  0.52803121  0.55509918  0.24507339     0.13600
C2383       C  0.04970657  0.49783624  0.37293984    -0.12900
C2384       C  0.04417167  0.50309823  0.35761869    -0.14400
C2385       C  0.78625428  0.17848635  0.85877247    -0.12900
C2386       C  0.79059736  0.17051234  0.87407658    -0.14400
C2387       C  0.74461331  0.45131339  0.87073345    -0.12900
C2388       C  0.74212681  0.45561688  0.85510658    -0.14400
C2389       C  0.90952699  0.24356877  0.80386715    -0.16000
C2390       C  0.89161772  0.21097392  0.80385077    -0.31200
H2391       H  0.89345056  0.26848144  0.80469728     0.13000
H2392       H  0.90730876  0.18587957  0.80278491     0.13600
C2393       C  0.64033963  0.22647814  0.80789540    -0.16000
C2394       C  0.66194563  0.19646932  0.80651341    -0.31200
H2395       H  0.65359738  0.25286045  0.80969004     0.13000
H2396       H  0.64918417  0.16993431  0.80451634     0.13600
C2397       C  0.02606602  0.26354112  0.86957034    -0.12900
C2398       C  0.02614096  0.26157420  0.85399606    -0.14400
C2399       C  0.87444416  0.99825114  0.81092196    -0.16000
C2400       C  0.84945574  0.02355625  0.80581369    -0.31200
H2401       H  0.86197517  0.41824619  0.79945338     0.13000
H2402       H  0.85872233  0.05115004  0.80255600     0.13600
C2403       C  0.60242806  0.95749523  0.80878842    -0.16000
C2404       C  0.62230526  0.98853037  0.81100188    -0.31200
H2405       H  0.61398291  0.42731499  0.80108233     0.13000
H2406       H  0.60760018  0.01375974  0.81340293     0.13600
C2407       C  0.49748121  0.47497228  0.87158344    -0.12900
C2408       C  0.49514176  0.47070217  0.85615238    -0.14400
C2409       C  0.75558031  0.24430165  0.74354227    -0.16000
C2410       C  0.77711377  0.22163082  0.75309525    -0.31200
H2411       H  0.73397059  0.25956241  0.74977112     0.13000
H2412       H  0.79605184  0.20392399  0.74640182     0.13600
C2413       C  0.77664358  0.24754094  0.63678657    -0.12900
C2414       C  0.78137904  0.24814690  0.62120969    -0.14400
C2415       C  0.78263228  0.36132958  0.68890022    -0.16000
C2416       C  0.75560959  0.38462161  0.68387592    -0.31200
H2417       H  0.80916009  0.37220463  0.69271044     0.13000
H2418       H  0.72966425  0.37261580  0.67988470     0.13600
C2419       C  0.71351359  0.11698468  0.69041625    -0.16000
C2420       C  0.74676647  0.13380386  0.68949815    -0.31200
H2421       H  0.68911005  0.13367579  0.69175954     0.13000
H2422       H  0.77117014  0.11693126  0.68869621     0.13600
C2423       C  0.73236447  0.99570701  0.74178141    -0.16000
C2424       C  0.71823115  0.01643692  0.75436491    -0.31200
H2425       H  0.70101227  0.46670625  0.74054011     0.13000
H2426       H  0.69909817  0.03809206  0.75080152     0.13600
C2427       C  0.78010187  0.50653112  0.63353657    -0.12900
C2428       C  0.79136124  0.50629354  0.61867398    -0.14400
C2429       C  0.03116793  0.23780516  0.73748061    -0.16000
C2430       C  0.01400363  0.26070173  0.74815041    -0.31200
H2431       H  0.05250879  0.21961291  0.74235851     0.13000
H2432       H  0.55567582  0.26335499  0.74670593     0.13600
C2433       C  0.97163205  0.23613702  0.63467233    -0.12900
C2434       C  0.96255591  0.23339860  0.61961906    -0.14400
C2435       C  0.98926141  0.37624228  0.68824412    -0.16000
C2436       C  0.01606325  0.35153980  0.68588874    -0.31200
H2437       H  0.96110536  0.36659929  0.68938311     0.13000
H2438       H  0.57560707  0.35174866  0.69175826     0.13600
C2439       C  0.99886490  0.12398212  0.68785812    -0.16000
C2440       C  0.97066377  0.10199422  0.69262842    -0.31200
H2441       H  0.57305339  0.09386687  0.68942609     0.13000
H2442       H  0.94444495  0.11396307  0.69596535     0.13600
C2443       C  0.50839814  0.96541354  0.74340927    -0.16000
C2444       C  0.49095606  0.98595851  0.75509865    -0.31200
H2445       H  0.52595682  0.94316700  0.74790290     0.13000
H2446       H  0.01393583  0.43718968  0.74465528     0.13600
C2447       C  0.03387863  0.48229381  0.62162367    -0.12900
C2448       C  0.02664845  0.48516755  0.63682709    -0.14400
O2449       O  0.95686543  0.92986903  0.69514938    -0.72500
O2450       O  0.97923633  0.54761678  0.68522936    -0.73500
O2451       O  0.94261316  0.98705643  0.66972318    -0.62100
O2452       O  0.96395805  0.49361772  0.71169865    -0.70600
O2453       O  0.53918460  0.47571442  0.71469169    -0.70100
O2454       O  0.52242308  0.97596765  0.66266328    -0.61400
O2455       O  0.54125931  0.52959887  0.68774274    -0.73900
O2456       O  0.51725636  0.91592753  0.68770485    -0.72700
Cu2457     Cu  0.97212538  0.49277214  0.68568051     1.04600
Cu2458     Cu  0.52967870  0.97105855  0.68856959     1.04300
C2459       C  0.48433049  0.90379330  0.68948262     0.93600
C2460       C  0.00978489  0.56346534  0.68837557     0.92800
C2461       C  0.96978317  0.99015501  0.65935811     0.84900
C2462       C  0.50756395  0.47330861  0.72166527     0.91200
O2463       O  0.00551236  0.68421077  0.68785883    -0.72500
O2464       O  0.99750454  0.79579498  0.68903876    -0.73500
O2465       O  0.01587882  0.74456546  0.66293083    -0.62100
O2466       O  0.98755393  0.73809152  0.71383295    -0.70600
O2467       O  0.53109498  0.71846136  0.71014922    -0.70100
O2468       O  0.49992796  0.72002022  0.65900275    -0.61400
O2469       O  0.52121965  0.77537017  0.68382952    -0.73900
O2470       O  0.51254978  0.66499057  0.68503441    -0.72700
Cu2471     Cu  0.99965808  0.74020819  0.68814125     1.04600
Cu2472     Cu  0.51814005  0.71982903  0.68423602     1.04300
C2473       C  0.03604941  0.66815144  0.69124208     0.93600
C2474       C  0.02554477  0.81498802  0.69318693     0.92800
C2475       C  0.04951899  0.74942148  0.65871110     0.84900
C2476       C  0.01233399  0.73912653  0.72559594     0.91200
O2477       O  0.71013653  0.00299687  0.66078474    -0.72500
O2478       O  0.74372096  0.99563309  0.71121769    -0.73500
O2479       O  0.72044078  0.94413586  0.68601087    -0.62100
O2480       O  0.77029127  0.55892086  0.68968783    -0.70600
O2481       O  0.71186295  0.55030031  0.68294453    -0.70100
O2482       O  0.66352143  0.94996255  0.69538443    -0.61400
O2483       O  0.68653473  0.00500153  0.71967798    -0.73900
O2484       O  0.65250660  0.00791531  0.66946096    -0.72700
Cu2485     Cu  0.72923167  0.99926543  0.68574073     1.04600
Cu2486     Cu  0.66787221  0.00647240  0.69485587     1.04300
C2487       C  0.67591026  0.00628413  0.65721816     0.93600
C2488       C  0.72032403  0.99933236  0.72336871     0.92800
C2489       C  0.69030623  0.92932366  0.69106509     0.84900
C2490       C  0.73790987  0.57199107  0.68702455     0.91200
O2491       O  0.71067984  0.69078486  0.69544997    -0.72500
O2492       O  0.69123712  0.80372864  0.69474288    -0.73500
O2493       O  0.68303811  0.74393568  0.67049584    -0.62100
O2494       O  0.71619884  0.74957352  0.72056431    -0.70600
O2495       O  0.77282936  0.76288613  0.71216819    -0.70100
O2496       O  0.74041849  0.75113083  0.66161604    -0.61400
O2497       O  0.74795831  0.81079821  0.68507849    -0.73900
O2498       O  0.76837499  0.70260612  0.68837717    -0.72700
Cu2499     Cu  0.69824188  0.74660031  0.69565721     1.04600
Cu2500     Cu  0.75924661  0.75709739  0.68654360     1.04300
C2501       C  0.74312968  0.67932085  0.69187659     0.93600
C2502       C  0.71748396  0.82486782  0.68947818     0.92800
C2503       C  0.70628846  0.74607925  0.65820983     0.84900
C2504       C  0.74929332  0.75817424  0.72432081     0.91200
O2505       O  0.49092737  0.94269852  0.77875192    -0.72500
O2506       O  0.48275686  0.91466499  0.82943535    -0.73500
O2507       O  0.93445564  0.97603212  0.81662695    -0.62100
O2508       O  0.54324654  0.92795325  0.80569703    -0.70600
O2509       O  0.54568913  0.48912666  0.80154624    -0.70100
O2510       O  0.93285263  0.47668910  0.80413805    -0.61400
O2511       O  0.49188692  0.49587999  0.82811357    -0.73900
O2512       O  0.48780773  0.48724734  0.77646982    -0.72700
Cu2513     Cu  0.48695486  0.92717247  0.80389062     1.04600
Cu2514     Cu  0.48965476  0.49338977  0.80224574     1.04300
C2515       C  0.48530557  0.45580247  0.76956506     0.93600
C2516       C  0.49258370  0.46702017  0.83767382     0.92800
C2517       C  0.91588344  0.44618831  0.80226831     0.84900
C2518       C  0.56176292  0.45790392  0.80226555     0.91200
O2519       O  0.56853397  0.68690530  0.80392997    -0.72500
O2520       O  0.95150723  0.72636372  0.81281198    -0.73500
O2521       O  0.00927645  0.71115917  0.78794425    -0.62100
O2522       O  0.00670860  0.74199399  0.83866778    -0.70600
O2523       O  0.00744915  0.80025242  0.83000072    -0.70100
O2524       O  0.00730415  0.76967260  0.77977873    -0.61400
O2525       O  0.95047483  0.78502795  0.80496470    -0.73900
O2526       O  0.55995129  0.74552939  0.80952919    -0.72700
Cu2527     Cu  0.00729902  0.72407185  0.81359646     1.04600
Cu2528     Cu  0.00715734  0.78647879  0.80469520     1.04300
C2529       C  0.58176009  0.71881194  0.80690189     0.93600
C2530       C  0.93324528  0.75534412  0.80901537     0.92800
C2531       C  0.00985070  0.73585374  0.77591491     0.84900
C2532       C  0.00727259  0.77619760  0.84222608     0.91200
O2533       O  0.73594275  0.98022153  0.77950118    -0.72500
O2534       O  0.74469247  0.96683801  0.83169162    -0.73500
O2535       O  0.68437330  0.96471513  0.80713734    -0.62100
O2536       O  0.79615705  0.98302670  0.80471367    -0.70600
O2537       O  0.79626712  0.50445348  0.80527512    -0.70100
O2538       O  0.68570771  0.50916589  0.80461466    -0.61400
O2539       O  0.74052609  0.49605000  0.83083489    -0.73900
O2540       O  0.74249960  0.51705447  0.77917064    -0.72700
Cu2541     Cu  0.74068929  0.97157524  0.80559707     1.04600
Cu2542     Cu  0.74120117  0.50863113  0.80513340     1.04300
C2543       C  0.74044614  0.49087955  0.76845038     0.93600
C2544       C  0.74030062  0.46291254  0.83653614     0.92800
C2545       C  0.66638396  0.48028787  0.80247683     0.84900
C2546       C  0.81291191  0.47438919  0.80255729     0.91200
O2547       O  0.75573203  0.72844618  0.78635905    -0.72500
O2548       O  0.75629885  0.75430944  0.83778851    -0.73500
O2549       O  0.70122357  0.73451915  0.81244569    -0.62100
O2550       O  0.81259950  0.74632876  0.81141064    -0.70600
O2551       O  0.80697195  0.80525559  0.80463361    -0.70100
O2552       O  0.69496149  0.79316349  0.80514624    -0.61400
O2553       O  0.74985877  0.81291225  0.83041034    -0.73900
O2554       O  0.75152673  0.78742788  0.77930652    -0.72700
Cu2555     Cu  0.75687248  0.73893802  0.81228576     1.04600
Cu2556     Cu  0.75072531  0.80170672  0.80466777     1.04300
C2557       C  0.75267658  0.75391717  0.77477735     0.93600
C2558       C  0.75237925  0.78782843  0.84213318     0.92800
C2559       C  0.68051083  0.76174578  0.80862401     0.84900
C2560       C  0.82748810  0.77738631  0.80774556     0.91200
O2561       O  0.53429105  0.01433783  0.33195958    -0.72500
O2562       O  0.54409117  0.00947485  0.27984154    -0.73500
O2563       O  0.53064676  0.57485465  0.30191120    -0.62100
O2564       O  0.53568227  0.95651944  0.30735106    -0.70600
O2565       O  0.98376759  0.95528406  0.30530979    -0.70100
O2566       O  0.99006907  0.56859663  0.30981674    -0.61400
O2567       O  0.97900374  0.01229260  0.27894481    -0.73900
O2568       O  0.96401859  0.00858928  0.33094276    -0.72700
Cu2569     Cu  0.54148271  0.01197521  0.30603081     1.04600
Cu2570     Cu  0.96981289  0.00957069  0.30480828     1.04300
C2571       C  0.99088187  0.01482695  0.34116711     0.93600
C2572       C  0.01029979  0.02157233  0.27278504     0.92800
C2573       C  0.01910950  0.58801604  0.30770928     0.84900
C2574       C  0.01717998  0.94487104  0.30705916     0.91200
O2575       O  0.52940498  0.76711292  0.28405069    -0.72500
O2576       O  0.50284014  0.76109676  0.33586205    -0.73500
O2577       O  0.52506888  0.71130810  0.30992116    -0.62100
O2578       O  0.51047853  0.82031808  0.30996393    -0.70600
O2579       O  0.98593246  0.81478243  0.30768317    -0.70100
O2580       O  0.00533105  0.70605540  0.30984482    -0.61400
O2581       O  0.00273266  0.76363905  0.33515054    -0.73900
O2582       O  0.99073015  0.75807406  0.28244288    -0.72700
Cu2583     Cu  0.51885123  0.76551430  0.31023227     1.04600
Cu2584     Cu  0.99414985  0.76013907  0.30892813     1.04300
C2585       C  0.01886703  0.76531192  0.27304967     0.93600
C2586       C  0.03464144  0.76989518  0.34155697     0.92800
C2587       C  0.03775981  0.69367234  0.30787348     0.84900
C2588       C  0.01207150  0.83811236  0.30651784     0.91200
O2589       O  0.75554341  0.00309742  0.28863570    -0.72500
O2590       O  0.72137576  0.00958927  0.33893920    -0.73500
O2591       O  0.72758270  0.95250187  0.31408908    -0.62100
O2592       O  0.78637728  0.57016009  0.30411214    -0.70600
O2593       O  0.72690404  0.56949124  0.30991708    -0.70100
O2594       O  0.67162807  0.96397536  0.30422179    -0.61400
O2595       O  0.66492346  0.02098342  0.32958153    -0.73900
O2596       O  0.69967246  0.01876217  0.27988500    -0.72700
Cu2597     Cu  0.74097460  0.00601799  0.31411992     1.04600
Cu2598     Cu  0.68088390  0.02002228  0.30445941     1.04300
C2599       C  0.73281342  0.01046086  0.27636845     0.93600
C2600       C  0.68741819  0.01570970  0.34208450     0.92800
C2601       C  0.69632808  0.94082423  0.30903060     0.84900
C2602       C  0.75640913  0.58746357  0.30705434     0.91200
O2603       O  0.68492100  0.81744309  0.30808116    -0.72500
O2604       O  0.69143807  0.70499922  0.30618158    -0.73500
O2605       O  0.67242183  0.75681674  0.33245510    -0.62100
O2606       O  0.70197787  0.76477295  0.28172952    -0.70600
O2607       O  0.76052810  0.76893737  0.28930780    -0.70100
O2608       O  0.73090886  0.75641244  0.34037600    -0.61400
O2609       O  0.75055741  0.70737300  0.31287106    -0.73900
O2610       O  0.74295170  0.81737016  0.31671020    -0.72700
Cu2611     Cu  0.68563835  0.76085367  0.30686477     1.04600
Cu2612     Cu  0.74818845  0.76256000  0.31510181     1.04300
C2613       C  0.71377811  0.83501246  0.31274734     0.93600
C2614       C  0.72211255  0.68867319  0.30896297     0.92800
C2615       C  0.69677313  0.75500613  0.34438944     0.84900
C2616       C  0.73567641  0.76881410  0.27751421     0.91200
O2617       O  0.51934151  0.00856363  0.40053031    -0.72500
O2618       O  0.51005139  0.99936972  0.45212096    -0.73500
O2619       O  0.50038144  0.95283212  0.42422329    -0.62100
O2620       O  0.51370178  0.54816352  0.42607341    -0.70600
O2621       O  0.02619399  0.54322141  0.42637983    -0.70100
O2622       O  0.99183073  0.97603204  0.43151220    -0.61400
O2623       O  0.93775348  0.00466881  0.45350395    -0.73900
O2624       O  0.95272844  0.99806159  0.40159547    -0.72700
Cu2625     Cu  0.51653219  0.00362084  0.42642579     1.04600
Cu2626     Cu  0.94377922  0.99976280  0.42752315     1.04300
C2627       C  0.97117053  0.02290418  0.39354833     0.93600
C2628       C  0.95244952  0.03066674  0.46206103     0.92800
C2629       C  0.02246879  0.99305745  0.43214242     0.84900
C2630       C  0.05631128  0.56104750  0.42623434     0.91200
O2631       O  0.46703897  0.72058921  0.40122386    -0.72500
O2632       O  0.44959325  0.71106879  0.45246127    -0.73500
O2633       O  0.44887345  0.66218637  0.42498046    -0.62100
O2634       O  0.46538949  0.76866779  0.42874807    -0.70600
O2635       O  0.03725386  0.84447767  0.42904138    -0.70100
O2636       O  0.02760932  0.73567326  0.43017126    -0.61400
O2637       O  0.03831584  0.79017901  0.45528055    -0.73900
O2638       O  0.02459532  0.78939198  0.40359104    -0.72700
Cu2639     Cu  0.45960547  0.71512938  0.42699431     1.04600
Cu2640     Cu  0.02982621  0.79025505  0.42958021     1.04300
C2641       C  0.05213051  0.78472208  0.39373729     0.93600
C2642       C  0.07012438  0.78907330  0.46230116     0.92800
C2643       C  0.05703278  0.71693911  0.42930173     0.84900
C2644       C  0.06909647  0.85882801  0.42735102     0.91200
O2645       O  0.67519149  0.99941821  0.40374182    -0.72500
O2646       O  0.65332819  0.99499209  0.45463944    -0.73500
O2647       O  0.63791006  0.95005315  0.42636434    -0.62100
O2648       O  0.81554202  0.57003107  0.42799126    -0.70600
O2649       O  0.76822442  0.53262238  0.43263762    -0.70100
O2650       O  0.58467568  0.97857478  0.42225256    -0.61400
O2651       O  0.60079823  0.02445994  0.45112865    -0.73900
O2652       O  0.62234604  0.02753625  0.39853078    -0.72700
Cu2653     Cu  0.66538858  0.99647861  0.42935163     1.04600
Cu2654     Cu  0.60888855  0.02720317  0.42456447     1.04300
C2655       C  0.65272682  0.01426002  0.39306988     0.93600
C2656       C  0.62448301  0.00881906  0.46116490     0.92800
C2657       C  0.60336077  0.94932819  0.42364752     0.84900
C2658       C  0.78196030  0.56479848  0.43195834     0.91200
O2659       O  0.59281781  0.77350192  0.42463380    -0.72500
O2660       O  0.65725602  0.68698765  0.43140182    -0.73500
O2661       O  0.61518352  0.72982462  0.45426651    -0.62100
O2662       O  0.63755356  0.73112677  0.40178633    -0.70600
O2663       O  0.68602590  0.76644582  0.40656640    -0.70100
O2664       O  0.66323825  0.76637366  0.45751051    -0.61400
O2665       O  0.70573861  0.72265257  0.43580084    -0.73900
O2666       O  0.64184169  0.80901238  0.42850387    -0.72700
Cu2667     Cu  0.62391034  0.72903247  0.42783499     1.04600
Cu2668     Cu  0.67571734  0.76738338  0.43223689     1.04300
C2669       C  0.60757791  0.80504462  0.42559211     0.93600
C2670       C  0.69130218  0.69086540  0.43475348     0.92800
C2671       C  0.63658447  0.74816160  0.46414989     0.84900
C2672       C  0.66573005  0.74886781  0.39607587     0.91200
O2673       O  0.96281997  0.49156501  0.04205674    -0.72500
O2674       O  0.96569714  0.50286466  0.09408523    -0.73500
O2675       O  0.53823538  0.56018175  0.06643014    -0.62100
O2676       O  0.92847188  0.45598707  0.07064006    -0.70600
O2677       O  0.00326790  0.03769660  0.06772072    -0.70100
O2678       O  0.52182756  0.92002874  0.07093562    -0.61400
O2679       O  0.04031974  0.06506085  0.09691622    -0.73900
O2680       O  0.05365649  0.07367246  0.04491543    -0.72700
Cu2681     Cu  0.96254910  0.49854729  0.06803896     1.04600
Cu2682     Cu  0.04851701  0.06807476  0.07102465     1.04300
C2683       C  0.03845836  0.09954207  0.03606112     0.93600
C2684       C  0.02003510  0.08799954  0.10464204     0.92800
C2685       C  0.53205211  0.95303640  0.06803266     0.84900
C2686       C  0.97263398  0.05408050  0.06590767     0.91200
O2687       O  0.02033958  0.84699823  0.09888463    -0.72500
O2688       O  0.02024213  0.86514834  0.04598582    -0.73500
O2689       O  0.97815402  0.89080621  0.07483379    -0.62100
O2690       O  0.52594679  0.72149887  0.06510886    -0.70600
O2691       O  0.56264682  0.67384648  0.06981389    -0.70100
O2692       O  0.94154542  0.84231092  0.07200920    -0.61400
O2693       O  0.98315247  0.81724269  0.04394054    -0.73900
O2694       O  0.98376796  0.79900113  0.09520017    -0.72700
Cu2695     Cu  0.02180477  0.85864636  0.07263839     1.04600
Cu2696     Cu  0.98247621  0.80716615  0.06948880     1.04300
C2697       C  0.00233859  0.81946319  0.10514814     0.93600
C2698       C  0.00153980  0.84304298  0.03663326     0.92800
C2699       C  0.94628654  0.87660272  0.07423663     0.84900
C2700       C  0.55802214  0.70779462  0.06634279     0.91200
O2701       O  0.77857600  0.49636706  0.09317234    -0.72500
O2702       O  0.77795843  0.48499255  0.04106860    -0.73500
O2703       O  0.74142032  0.53096641  0.06504162    -0.62100
O2704       O  0.81474092  0.45062535  0.06932945    -0.70600
O2705       O  0.81450499  0.97630485  0.07321948    -0.70100
O2706       O  0.70766877  0.95860610  0.07354777    -0.61400
O2707       O  0.76130582  0.96282313  0.04739979    -0.73900
O2708       O  0.76045646  0.97294350  0.09953475    -0.72700
Cu2709     Cu  0.77980237  0.49209902  0.06704068     1.04600
Cu2710     Cu  0.76134112  0.96560940  0.07361869     1.04300
C2711       C  0.75583436  0.00458842  0.10599121     0.93600
C2712       C  0.75473490  0.99106429  0.03779824     0.92800
C2713       C  0.68531130  0.98527312  0.07210966     0.84900
C2714       C  0.82610881  0.00867327  0.07018561     0.91200
O2715       O  0.68455048  0.82981639  0.07160988    -0.72500
O2716       O  0.77345575  0.89159240  0.07652352    -0.73500
O2717       O  0.73018986  0.86785917  0.04749017    -0.62100
O2718       O  0.72850227  0.85057637  0.10062040    -0.70600
O2719       O  0.76194493  0.80056839  0.09737366    -0.70100
O2720       O  0.76522678  0.81866684  0.04590925    -0.61400
O2721       O  0.80748360  0.84138488  0.07450674    -0.73900
O2722       O  0.71852513  0.78000445  0.06861617    -0.72700
Cu2723     Cu  0.72793578  0.86181808  0.07420998     1.04600
Cu2724     Cu  0.76451583  0.80859503  0.07153712     1.04300
C2725       C  0.68724263  0.79557061  0.06901495     0.93600
C2726       C  0.80454809  0.87596988  0.07622919     0.92800
C2727       C  0.74800336  0.84491097  0.03833890     0.84900
C2728       C  0.74486424  0.82235386  0.10717869     0.91200
O2729       O  0.00073919  0.53721636  0.16041874    -0.72500
O2730       O  0.01073953  0.55568088  0.21183472    -0.73500
O2731       O  0.56109083  0.55127330  0.18494122    -0.62100
O2732       O  0.95016426  0.54827141  0.18795986    -0.70600
O2733       O  0.93738863  0.02239245  0.18623252    -0.70100
O2734       O  0.54781237  0.96519866  0.19134265    -0.61400
O2735       O  0.98995277  0.00204140  0.21168918    -0.73900
O2736       O  0.99515242  0.03129182  0.16071103    -0.72700
Cu2737     Cu  0.00552513  0.54872634  0.18595073     1.04600
Cu2738     Cu  0.99214393  0.01448427  0.18600785     1.04300
C2739       C  0.00023940  0.06492260  0.15627425     0.93600
C2740       C  0.99447979  0.02634104  0.22321305     0.92800
C2741       C  0.56866133  0.99291060  0.18805927     0.84900
C2742       C  0.92320176  0.05289610  0.19045167     0.91200
O2743       O  0.00124733  0.78736884  0.21882524    -0.72500
O2744       O  0.00029159  0.81406661  0.16818982    -0.73500
O2745       O  0.94378809  0.80220912  0.19400139    -0.62100
O2746       O  0.54416806  0.78190331  0.18491371    -0.70600
O2747       O  0.56088323  0.72574135  0.19288869    -0.70100
O2748       O  0.94300022  0.74357828  0.18709608    -0.61400
O2749       O  0.99953761  0.75523568  0.16151854    -0.73900
O2750       O  0.99676875  0.72816224  0.21328271    -0.72700
Cu2751     Cu  0.00060478  0.80204335  0.19369521     1.04600
Cu2752     Cu  0.99800148  0.73898485  0.18714698     1.04300
C2753       C  0.99914280  0.75411081  0.22418705     0.93600
C2754       C  0.00045701  0.78918947  0.15685052     0.92800
C2755       C  0.92574627  0.77286430  0.19066770     0.84900
C2756       C  0.56935898  0.75908510  0.18902393     0.91200
O2757       O  0.74374284  0.99710183  0.22034880    -0.72500
O2758       O  0.74950763  0.98749787  0.16833351    -0.73500
O2759       O  0.80233331  0.99563924  0.19523671    -0.62100
O2760       O  0.69059471  0.98960557  0.19281737    -0.70600
O2761       O  0.69871243  0.52332518  0.18806448    -0.70100
O2762       O  0.81072177  0.52327414  0.18961008    -0.61400
O2763       O  0.75591594  0.51990993  0.16253958    -0.73900
O2764       O  0.75311326  0.52659172  0.21513634    -0.72700
Cu2765     Cu  0.74672045  0.99040979  0.19435403     1.04600
Cu2766     Cu  0.75458513  0.52546562  0.18874805     1.04300
C2767       C  0.74002068  0.02879724  0.22688783     0.93600
C2768       C  0.75041313  0.01613626  0.15857875     0.92800
C2769       C  0.81929501  0.02638924  0.19383336     0.84900
C2770       C  0.67256667  0.01929846  0.19024251     0.91200
O2771       O  0.75340487  0.76190984  0.16448134    -0.72500
O2772       O  0.75284967  0.73611392  0.21652883    -0.73500
O2773       O  0.70018713  0.73662491  0.18935231    -0.62100
O2774       O  0.80800613  0.75876276  0.19151275    -0.70600
O2775       O  0.79734591  0.81691081  0.19727828    -0.70100
O2776       O  0.68626120  0.79417851  0.19508662    -0.61400
O2777       O  0.74162211  0.79429183  0.22210859    -0.73900
O2778       O  0.74111281  0.81958389  0.17071782    -0.72700
Cu2779     Cu  0.75415677  0.74647587  0.19027500     1.04600
Cu2780     Cu  0.74124314  0.80830094  0.19651186     1.04300
C2781       C  0.74681523  0.79502834  0.15951245     0.93600
C2782       C  0.74631244  0.76126301  0.22747675     0.92800
C2783       C  0.67615584  0.76116625  0.19192030     0.84900
C2784       C  0.82014848  0.79089965  0.19454615     0.91200
O2785       O  0.52067937  0.89794486  0.92811114    -0.72500
O2786       O  0.99845034  0.02514799  0.93415030    -0.73500
O2787       O  0.47085084  0.88628210  0.90060839    -0.62100
O2788       O  0.05215261  0.06287390  0.95373968    -0.70600
O2789       O  0.95561770  0.46796552  0.95081298    -0.70100
O2790       O  0.48777461  0.50893026  0.89672547    -0.61400
O2791       O  0.91977962  0.42289750  0.92626927    -0.73900
O2792       O  0.53837893  0.54016058  0.92054912    -0.72700
Cu2793     Cu  0.46888607  0.88149586  0.92718176     1.04600
Cu2794     Cu  0.48926782  0.51654333  0.92254244     1.04300
C2795       C  0.52982726  0.93170697  0.92825109     0.93600
C2796       C  0.96903216  0.04390376  0.93464378     0.92800
C2797       C  0.46521809  0.91702182  0.89268612     0.84900
C2798       C  0.03893892  0.09168324  0.96050683     0.91200
O2799       O  0.02269175  0.85915121  0.95101498    -0.72500
O2800       O  0.02382792  0.83716990  0.89880526    -0.73500
O2801       O  0.97926316  0.88029547  0.92148384    -0.62100
O2802       O  0.52832804  0.70787192  0.93070686    -0.70600
O2803       O  0.56549753  0.66000166  0.92917167    -0.70100
O2804       O  0.94488170  0.83043405  0.92578740    -0.61400
O2805       O  0.98945636  0.78787783  0.90390710    -0.73900
O2806       O  0.98768891  0.80992543  0.95470463    -0.72700
Cu2807     Cu  0.02470060  0.85061897  0.92468481     1.04600
Cu2808     Cu  0.98765212  0.79777549  0.92946141     1.04300
C2809       C  0.00457476  0.83733176  0.96108305     0.93600
C2810       C  0.00709517  0.80854099  0.89332748     0.92800
C2811       C  0.94802914  0.86484648  0.92284000     0.84900
C2812       C  0.56054587  0.69434781  0.93081381     0.91200
O2813       O  0.77217729  0.46859199  0.89706619    -0.72500
O2814       O  0.77734238  0.46924022  0.94947589    -0.73500
O2815       O  0.80888867  0.42614922  0.92323889    -0.62100
O2816       O  0.74063241  0.51133216  0.92334606    -0.70600
O2817       O  0.70577741  0.94387984  0.92835182    -0.70100
O2818       O  0.81141076  0.96690436  0.92905903    -0.61400
O2819       O  0.75837213  0.95488150  0.95483023    -0.73900
O2820       O  0.75866087  0.95680627  0.90232711    -0.72700
Cu2821     Cu  0.77653720  0.47003065  0.92321169     1.04600
Cu2822     Cu  0.75899714  0.95359129  0.92858435     1.04300
C2823       C  0.75244652  0.98701151  0.89418162     0.93600
C2824       C  0.75103722  0.98432664  0.96285275     0.92800
C2825       C  0.82159929  0.00007978  0.93043880     0.84900
C2826       C  0.68221682  0.96958375  0.92788713     0.91200
O2827       O  0.80766358  0.83376175  0.92782034    -0.72500
O2828       O  0.71907040  0.77199630  0.93314248    -0.73500
O2829       O  0.76420084  0.79266552  0.90479135    -0.62100
O2830       O  0.76352620  0.81212430  0.95606888    -0.70600
O2831       O  0.72896712  0.86139275  0.95235852    -0.70100
O2832       O  0.73000931  0.84189776  0.89982782    -0.61400
O2833       O  0.68445949  0.82117543  0.92861605    -0.73900
O2834       O  0.77381163  0.88365788  0.92335831    -0.72700
Cu2835     Cu  0.76476268  0.80108100  0.93062324     1.04600
Cu2836     Cu  0.72799745  0.85384976  0.92587188     1.04300
C2837       C  0.80488978  0.86810004  0.92476844     0.93600
C2838       C  0.68755913  0.78681964  0.93163870     0.92800
C2839       C  0.74739627  0.81401484  0.89417315     0.84900
C2840       C  0.74648894  0.83922269  0.96249772     0.91200
O2841       O  0.51211313  0.98867994  0.59447695    -0.72500
O2842       O  0.50656036  0.98883104  0.54255105    -0.73500
O2843       O  0.50887906  0.52523540  0.56682563    -0.62100
O2844       O  0.49473845  0.93760511  0.56937912    -0.70600
O2845       O  0.98314633  0.96269052  0.56937320    -0.70100
O2846       O  0.02162716  0.53917897  0.56883767    -0.61400
O2847       O  0.93316587  0.99526946  0.54532004    -0.73900
O2848       O  0.93795179  0.98118343  0.59756829    -0.72700
Cu2849     Cu  0.51125318  0.98842749  0.56842872     1.04600
Cu2850     Cu  0.93424808  0.98652805  0.57136674     1.04300
C2851       C  0.95505403  0.00462727  0.60671701     0.93600
C2852       C  0.94861405  0.02292904  0.53787083     0.92800
C2853       C  0.05271633  0.55476164  0.57069496     0.84900
C2854       C  0.01364353  0.97998683  0.57018549     0.91200
O2855       O  0.03633304  0.73087906  0.57058920    -0.72500
O2856       O  0.04954288  0.83814068  0.57341577    -0.73500
O2857       O  0.04521134  0.78843755  0.54605494    -0.62100
O2858       O  0.03972058  0.77959429  0.59811724    -0.70600
O2859       O  0.46239599  0.70090678  0.59388753    -0.70100
O2860       O  0.44734388  0.70004257  0.54239122    -0.61400
O2861       O  0.46117242  0.75363875  0.56725143    -0.73900
O2862       O  0.44657607  0.64635701  0.56898461    -0.72700
Cu2863     Cu  0.04071876  0.78471821  0.57202580     1.04600
Cu2864     Cu  0.45623310  0.69979737  0.56801760     1.04300
C2865       C  0.06489704  0.71086789  0.57094737     0.93600
C2866       C  0.08150492  0.85249093  0.57389881     0.92800
C2867       C  0.07574993  0.78649173  0.53801809     0.84900
C2868       C  0.06872084  0.77360539  0.60704204     0.91200
O2869       O  0.65016014  0.99020330  0.54405236    -0.72500
O2870       O  0.66918614  0.99396294  0.59537447    -0.73500
O2871       O  0.63407233  0.94451681  0.57294268    -0.62100
O2872       O  0.81642870  0.56318443  0.56518211    -0.70600
O2873       O  0.76794316  0.52800206  0.55996532    -0.70100
O2874       O  0.58026886  0.97220831  0.57578977    -0.61400
O2875       O  0.61567971  0.02124982  0.59928874    -0.73900
O2876       O  0.59740976  0.01941446  0.54650649    -0.72700
Cu2877     Cu  0.66095537  0.99125387  0.56956844     1.04600
Cu2878     Cu  0.60399379  0.02139778  0.57309325     1.04300
C2879       C  0.62174530  0.00452768  0.53695958     0.93600
C2880       C  0.64572669  0.00802788  0.60547571     0.92800
C2881       C  0.59948140  0.94322956  0.57531056     0.84900
C2882       C  0.78258239  0.55961964  0.56134374     0.91200
O2883       O  0.69072290  0.75995911  0.59658707    -0.72500
O2884       O  0.66499448  0.76341067  0.54608156    -0.73500
O2885       O  0.64481233  0.80377350  0.57509371    -0.62100
O2886       O  0.70891543  0.71846550  0.56729952    -0.70600
O2887       O  0.66109794  0.68183739  0.57213954    -0.70100
O2888       O  0.59645341  0.76734586  0.57941756    -0.61400
O2889       O  0.61751550  0.72607530  0.54976304    -0.73900
O2890       O  0.64297571  0.72368456  0.60196432    -0.72700
Cu2891     Cu  0.67886664  0.76266443  0.57116732     1.04600
Cu2892     Cu  0.62774670  0.72336263  0.57609712     1.04300
C2893       C  0.67128778  0.74140667  0.60729574     0.93600
C2894       C  0.63822814  0.74538957  0.53968866     0.92800
C2895       C  0.61064756  0.79916918  0.57803273     0.84900
C2896       C  0.69466122  0.68649133  0.56806042     0.91200
C2897       C  0.57624846  0.88721104  0.56249387    -0.13000
C2898       C  0.58264803  0.90741106  0.57740248     0.09200
C2899       C  0.58601255  0.88948762  0.59350232    -0.13000
C2900       C  0.58883616  0.85143975  0.59429411    -0.13000
C2901       C  0.58813114  0.83166983  0.57898121     0.09200
C2902       C  0.57881712  0.84918426  0.56330602    -0.13000
H2903       H  0.57424900  0.90089632  0.54996049     0.13200
H2904       H  0.59160503  0.90498679  0.60503493     0.13200
H2905       H  0.59668530  0.83816734  0.60640151     0.13200
H2906       H  0.57886647  0.83413250  0.55136073     0.13200
C2907       C  0.72162932  0.58934368  0.55968548    -0.13000
C2908       C  0.75997317  0.59243168  0.55975544     0.09200
C2909       C  0.77653508  0.62712204  0.56069325    -0.13000
C2910       C  0.75513633  0.65803935  0.56286421    -0.13000
C2911       C  0.71695201  0.65459697  0.56413768     0.09200
C2912       C  0.70021960  0.62027884  0.56193772    -0.13000
H2913       H  0.70824062  0.56287917  0.55885598     0.13200
H2914       H  0.80610623  0.63021366  0.56058465     0.13200
H2915       H  0.76858528  0.68434384  0.56425111     0.13200
H2916       H  0.67067529  0.61714381  0.56247469     0.13200
C2917       C  0.05832121  0.94168374  0.55545744    -0.13000
C2918       C  0.04710304  0.95860321  0.57060121     0.09200
C2919       C  0.41762178  0.87647626  0.56519171    -0.13000
C2920       C  0.41133887  0.83877424  0.56450477    -0.13000
C2921       C  0.08375363  0.89215843  0.57282556     0.09200
C2922       C  0.07704691  0.90854026  0.55657709    -0.13000
H2923       H  0.04852639  0.95148934  0.54295848     0.13200
H2924       H  0.39599012  0.89525532  0.56136640     0.13200
H2925       H  0.38498118  0.82877030  0.56017765     0.13200
H2926       H  0.08120809  0.89320826  0.54488573     0.13200
C2927       C  0.43238231  0.54375702  0.55192287    -0.13000
C2928       C  0.05505396  0.59469091  0.57117337     0.09200
C2929       C  0.02367767  0.61638405  0.56872800    -0.13000
C2930       C  0.02670264  0.65443058  0.56858076    -0.13000
C2931       C  0.06113310  0.67103533  0.57085443     0.09200
C2932       C  0.41520609  0.57763093  0.55332678    -0.13000
H2933       H  0.44070702  0.53474483  0.53926324     0.13200
H2934       H  0.99694572  0.60402121  0.56679592     0.13200
H2935       H  0.00223475  0.67075927  0.56662318     0.13200
H2936       H  0.41045853  0.59398661  0.54168661     0.13200
C2937       C  0.89711059  0.89410853  0.93725985    -0.13000
C2938       C  0.91461841  0.88612351  0.92170660     0.09200
C2939       C  0.89456095  0.88559579  0.90624972    -0.13000
C2940       C  0.85640195  0.88710735  0.90678619    -0.13000
C2941       C  0.83869841  0.88866666  0.92279105     0.09200
C2942       C  0.85899036  0.89533230  0.93781144    -0.13000
H2943       H  0.91242312  0.89406346  0.94930313     0.13200
H2944       H  0.90786170  0.87880862  0.89422682     0.13200
H2945       H  0.84089126  0.88132021  0.89516391     0.13200
H2946       H  0.84550776  0.89606105  0.95026871     0.13200
C2947       C  0.58887944  0.75642364  0.92958136    -0.13000
C2948       C  0.59242458  0.71853402  0.93249394     0.09200
C2949       C  0.62701465  0.70364957  0.93627269    -0.13000
C2950       C  0.65785380  0.72614442  0.93654697    -0.13000
C2951       C  0.65458568  0.76383757  0.93295277     0.09200
C2952       C  0.61978628  0.77894088  0.92977333    -0.13000
H2953       H  0.56243056  0.76849917  0.92662811     0.13200
H2954       H  0.63034501  0.67452880  0.93874909     0.13200
H2955       H  0.68433780  0.71384490  0.93918444     0.13200
H2956       H  0.61652602  0.80795988  0.92699883     0.13200
C2957       C  0.87999091  0.35893036  0.94305394    -0.13000
C2958       C  0.93363543  0.02666100  0.93757248     0.09200
C2959       C  0.92426201  0.99511546  0.92852625    -0.13000
C2960       C  0.88743909  0.98591275  0.92640007    -0.13000
C2961       C  0.86014971  0.00801810  0.93345270     0.09200
C2962       C  0.84179379  0.36008581  0.94196366    -0.13000
H2963       H  0.89290348  0.36327819  0.95549854     0.13200
H2964       H  0.94499174  0.97961688  0.92186405     0.13200
H2965       H  0.88019630  0.96294270  0.91842774     0.13200
H2966       H  0.82636495  0.36517096  0.95362477     0.13200
C2967       C  0.61657313  0.98779727  0.92762857    -0.13000
C2968       C  0.64321716  0.96016811  0.92789225     0.09200
C2969       C  0.65891553  0.53566714  0.93925441    -0.13000
C2970       C  0.62084607  0.53812140  0.93851934    -0.13000
C2971       C  0.56872706  0.94161137  0.92837225     0.09200
C2972       C  0.57952760  0.97856761  0.92786957    -0.13000
H2973       H  0.62430698  0.01649086  0.92725660     0.13200
H2974       H  0.67188835  0.53002240  0.95165549     0.13200
H2975       H  0.60528464  0.53509358  0.95038586     0.13200
H2976       H  0.55940849  0.00033555  0.92760221     0.13200
C2977       C  0.88473822  0.77065125  0.19082082    -0.16000
C2978       C  0.86089462  0.79763195  0.19475643    -0.31200
H2979       H  0.87350634  0.74404525  0.18752578     0.13000
H2980       H  0.87120456  0.82457871  0.19803583     0.13600
C2981       C  0.60822426  0.77230990  0.18953184    -0.16000
C2982       C  0.63690229  0.74947136  0.19147361    -0.31200
H2983       H  0.61329760  0.80155889  0.18805430     0.13000
H2984       H  0.63159216  0.72015768  0.19219825     0.13600
C2985       C  0.88228797  0.05613241  0.19181453    -0.16000
C2986       C  0.86032514  0.02611238  0.19313111    -0.31200
H2987       H  0.87846615  0.54794904  0.18967749     0.13000
H2988       H  0.87308121  0.99924580  0.19337851     0.13600
C2989       C  0.60955931  0.98964838  0.18940665    -0.16000
C2990       C  0.63173284  0.01952299  0.18846632    -0.31200
H2991       H  0.62139955  0.96274471  0.19177683     0.13000
H2992       H  0.62710837  0.46510762  0.19080238     0.13600
C2993       C  0.72579712  0.87042575  0.00892690    -0.13000
C2994       C  0.74866098  0.84694743  0.01886462     0.09200
C2995       C  0.77147845  0.82277089  0.00991968    -0.13000
C2996       C  0.77090740  0.82118881  0.99185648    -0.13000
C2997       C  0.74754890  0.84375711  0.98182224     0.09200
C2998       C  0.72527471  0.86887418  0.99061155    -0.13000
H2999       H  0.70784357  0.88945120  0.01529429     0.13200
H3000       H  0.78964787  0.80429700  0.01692285     0.13200
H3001       H  0.78872600  0.80165341  0.98574450     0.13200
H3002       H  0.70703193  0.88685848  0.98337351     0.13200
C3003       C  0.74551247  0.80518981  0.14110424    -0.12900
C3004       C  0.74440263  0.81424604  0.12579577    -0.14400
C3005       C  0.78203883  0.47400265  0.98629482    -0.13000
C3006       C  0.75140865  0.98498282  0.98206477     0.09200
C3007       C  0.76537009  0.95552433  0.99206169    -0.13000
C3008       C  0.76634915  0.95716566  0.01019428    -0.13000
C3009       C  0.75352542  0.98836837  0.01865811     0.09200
C3010       C  0.78219933  0.47709904  0.00437589    -0.13000
H3011       H  0.80215169  0.48940485  0.97884145     0.13200
H3012       H  0.77593047  0.93141684  0.98586677     0.13200
H3013       H  0.77749235  0.93422273  0.01756621     0.13200
H3014       H  0.80249814  0.49469765  0.01026787     0.13200
C3015       C  0.75298109  0.01222244  0.14005739    -0.12900
C3016       C  0.75476612  0.00853424  0.12454226    -0.14400
C3017       C  0.89613991  0.89636215  0.09230107    -0.13000
C3018       C  0.91385554  0.89883303  0.07628338     0.09200
C3019       C  0.89381324  0.90762179  0.06131087    -0.13000
C3020       C  0.85567165  0.90668104  0.06183783    -0.13000
C3021       C  0.83805670  0.89719253  0.07735251     0.09200
C3022       C  0.85799285  0.89533130  0.09283059    -0.13000
H3023       H  0.91146523  0.88920454  0.10391336     0.13200
H3024       H  0.90730766  0.90923851  0.04885374     0.13200
H3025       H  0.84036953  0.90790343  0.04979458     0.13200
H3026       H  0.84453119  0.88766162  0.10484581     0.13200
C3027       C  0.62448350  0.71585744  0.06103548    -0.13000
C3028       C  0.59023893  0.73134359  0.06458204     0.09200
C3029       C  0.58768958  0.76870443  0.06818080    -0.13000
C3030       C  0.61934538  0.78990486  0.06921913    -0.13000
C3031       C  0.65383594  0.77396602  0.06657459     0.09200
C3032       C  0.65611975  0.73707487  0.06198881    -0.13000
H3033       H  0.62689254  0.68709645  0.05802714     0.13200
H3034       H  0.56148550  0.78109328  0.07102084     0.13200
H3035       H  0.61686143  0.81842880  0.07263973     0.13200
H3036       H  0.68236615  0.72436804  0.05957660     0.13200
C3037       C  0.02581557  0.86758351  0.00755750    -0.13000
C3038       C  0.00102030  0.84564349  0.01721874     0.09200
C3039       C  0.52486956  0.62250913  0.00964506    -0.13000
C3040       C  0.52503424  0.62044439  0.99136036    -0.13000
C3041       C  0.00268740  0.84258286  0.98028071     0.09200
C3042       C  0.02660203  0.86610734  0.98926964    -0.13000
H3043       H  0.04527129  0.88501128  0.01413045     0.13200
H3044       H  0.54565241  0.60790044  0.01703728     0.13200
H3045       H  0.54597112  0.60434845  0.98519060     0.13200
H3046       H  0.04660240  0.88249485  0.98222834     0.13200
C3047       C  0.00293082  0.81033526  0.12356054    -0.12900
C3048       C  0.00193247  0.80012189  0.13865061    -0.14400
C3049       C  0.91231344  0.04900112  0.05243469    -0.13000
C3050       C  0.93850296  0.03402712  0.06378581     0.09200
C3051       C  0.89124808  0.39172308  0.08917571    -0.13000
C3052       C  0.85305795  0.38922802  0.08883226    -0.13000
C3053       C  0.86500436  0.01486788  0.06732344     0.09200
C3054       C  0.87564728  0.03983908  0.05433582    -0.13000
H3055       H  0.91995487  0.06992383  0.04297019     0.13200
H3056       H  0.90473210  0.39825801  0.10124946     0.13200
H3057       H  0.83813337  0.39411079  0.10065677     0.13200
H3058       H  0.85545155  0.05321537  0.04607493     0.13200
C3059       C  0.62356133  0.55914699  0.08222781    -0.13000
C3060       C  0.57122038  0.96163836  0.06796123     0.09200
C3061       C  0.59683226  0.93311427  0.06893161    -0.13000
C3062       C  0.63393529  0.94094893  0.07042885    -0.13000
C3063       C  0.64604310  0.97744755  0.07096534     0.09200
C3064       C  0.66146821  0.55460074  0.08171018    -0.13000
H3065       H  0.60979196  0.55787987  0.09462366     0.13200
H3066       H  0.58821749  0.90467792  0.06874705     0.13200
H3067       H  0.65309573  0.91834599  0.07116591     0.13200
H3068       H  0.67616652  0.54978215  0.09374877     0.13200
C3069       C  0.49283338  0.53007873  0.00315162    -0.13000
C3070       C  0.04119371  0.10003750  0.01667225     0.09200
C3071       C  0.06118508  0.07281476  0.00818575    -0.13000
C3072       C  0.06140822  0.07103409  0.99005545    -0.13000
C3073       C  0.04169291  0.09643823  0.97972758     0.09200
C3074       C  0.49239858  0.52768536  0.98511413    -0.13000
H3075       H  0.47975909  0.55331380  0.00902749     0.13200
H3076       H  0.07611405  0.05220722  0.01558216     0.13200
H3077       H  0.07647198  0.04908566  0.98413213     0.13200
H3078       H  0.47914154  0.54919788  0.97756546     0.13200
C3079       C  0.00563269  0.07501795  0.13811666    -0.12900
C3080       C  0.01202403  0.08224534  0.12295685    -0.14400
C3081       C  0.61179748  0.72198158  0.49286519    -0.13000
C3082       C  0.63205248  0.74866889  0.48344337     0.09200
C3083       C  0.65104857  0.77542461  0.49282288    -0.13000
C3084       C  0.65141914  0.77476342  0.51088517    -0.13000
C3085       C  0.63282761  0.74730202  0.52043717     0.09200
C3086       C  0.61219664  0.72129186  0.51120307    -0.13000
H3087       H  0.59684575  0.70090936  0.48610169     0.13200
H3088       H  0.66659555  0.79672184  0.48616515     0.13200
H3089       H  0.66724388  0.79558472  0.51739898     0.13200
H3090       H  0.59755537  0.69970500  0.51810386     0.13200
C3091       C  0.57724146  0.85702655  0.43840803    -0.13000
C3092       C  0.58600179  0.83802004  0.42343421     0.09200
C3093       C  0.58845855  0.85674820  0.40750821    -0.13000
C3094       C  0.58855701  0.89488981  0.40706192    -0.13000
C3095       C  0.58566408  0.91391244  0.42251880     0.09200
C3096       C  0.57719381  0.89516381  0.43796223    -0.13000
H3097       H  0.57591704  0.84276132  0.45081818     0.13200
H3098       H  0.59582810  0.84225277  0.39593563     0.13200
H3099       H  0.59557055  0.90926955  0.39512604     0.13200
H3100       H  0.57538786  0.90976629  0.44999762     0.13200
C3101       C  0.72041236  0.59251769  0.43463001    -0.13000
C3102       C  0.75866304  0.59630891  0.43526314     0.09200
C3103       C  0.77444424  0.63088265  0.43789698    -0.13000
C3104       C  0.75229203  0.66170445  0.43870019    -0.13000
C3105       C  0.71417432  0.65823972  0.43675275     0.09200
C3106       C  0.69829219  0.62331850  0.43533346    -0.13000
H3107       H  0.70763756  0.56603234  0.43274553     0.13200
H3108       H  0.80393409  0.63426897  0.43874808     0.13200
H3109       H  0.76512194  0.68831631  0.44006750     0.13200
H3110       H  0.66888259  0.61987620  0.43403689     0.13200
C3111       C  0.59417533  0.02700498  0.48968112    -0.13000
C3112       C  0.62001461  0.00631207  0.48049608     0.09200
C3113       C  0.86287159  0.52997844  0.48742478    -0.13000
C3114       C  0.86271438  0.52897722  0.50568447    -0.13000
C3115       C  0.61858347  0.00397943  0.51755692     0.09200
C3116       C  0.59347103  0.02585372  0.50802440    -0.13000
H3117       H  0.57518433  0.04471706  0.48273498     0.13200
H3118       H  0.87352889  0.55403574  0.48070368     0.13200
H3119       H  0.87326298  0.55228962  0.51261429     0.13200
H3120       H  0.57398283  0.04276187  0.51472423     0.13200
C3121       C  0.44778097  0.70674952  0.48839702    -0.13000
C3122       C  0.07285260  0.78924555  0.48165571     0.09200
C3123       C  0.04055940  0.78970912  0.49157454    -0.13000
C3124       C  0.04188997  0.78917753  0.50966312    -0.13000
C3125       C  0.07556964  0.78809722  0.51861077     0.09200
C3126       C  0.44731959  0.70431132  0.50643619    -0.13000
H3127       H  0.47419718  0.70618018  0.48204551     0.13200
H3128       H  0.01389079  0.79026115  0.48535357     0.13200
H3129       H  0.01620915  0.78929212  0.51665807     0.13200
H3130       H  0.47340134  0.70202993  0.51311888     0.13200
C3131       C  0.48566874  0.87974482  0.41996665    -0.13000
C3132       C  0.05518773  0.97079505  0.43278743     0.09200
C3133       C  0.05968264  0.94882594  0.44766115    -0.13000
C3134       C  0.06834688  0.91204660  0.44596725    -0.13000
C3135       C  0.07340660  0.89788701  0.42947624     0.09200
C3136       C  0.47934223  0.84251717  0.42179452    -0.13000
H3137       H  0.51266352  0.88893704  0.41609188     0.13200
H3138       H  0.05025524  0.95822651  0.46008159     0.13200
H3139       H  0.06701404  0.89393135  0.45722748     0.13200
H3140       H  0.50156880  0.82382101  0.41916912     0.13200
C3141       C  0.43710909  0.55990030  0.44018606    -0.13000
C3142       C  0.05576262  0.60085342  0.42737550     0.09200
C3143       C  0.02286618  0.62031909  0.42517059    -0.13000
C3144       C  0.02283416  0.65834071  0.42625053    -0.13000
C3145       C  0.05569431  0.67704139  0.42955020     0.09200
C3146       C  0.41776771  0.59270019  0.43934518    -0.13000
H3147       H  0.44699805  0.54987224  0.45263187     0.13200
H3148       H  0.99736010  0.60625177  0.42238253     0.13200
H3149       H  0.99743265  0.67308564  0.42411648     0.13200
H3150       H  0.41317195  0.60735953  0.45119574     0.13200
C3151       C  0.02972253  0.48694465  0.48819582    -0.13000
C3152       C  0.94962595  0.03047891  0.48145552     0.09200
C3153       C  0.50655790  0.98664281  0.48812736    -0.13000
C3154       C  0.50585112  0.98447129  0.50617376    -0.13000
C3155       C  0.94800665  0.02654322  0.51847014     0.09200
C3156       C  0.02884801  0.48691508  0.50618617    -0.13000
H3157       H  0.00385479  0.48579342  0.48128489     0.13200
H3158       H  0.52984481  0.97522435  0.48147370     0.13200
H3159       H  0.52863586  0.97150185  0.51288572     0.13200
H3160       H  0.00231711  0.48560432  0.51243561     0.13200
C3161       C  0.74542108  0.77652521  0.25902433    -0.16000
C3162       C  0.74212588  0.75163554  0.24633712    -0.31200
H3163       H  0.75435770  0.80419197  0.25570555     0.13000
H3164       H  0.73505890  0.72351392  0.24983328     0.13600
C3165       C  0.67535699  0.74941586  0.37765375    -0.12900
C3166       C  0.68530246  0.75153065  0.36254119    -0.14400
C3167       C  0.68934911  0.90018699  0.30855893    -0.16000
C3168       C  0.71553882  0.87592350  0.31364821    -0.31200
H3169       H  0.66326918  0.89028292  0.30363789     0.13000
H3170       H  0.74141364  0.88673544  0.31841239     0.16800
C3171       C  0.75577936  0.62849615  0.30742617    -0.16000
C3172       C  0.72403063  0.64784385  0.30788425    -0.31200
H3173       H  0.78185250  0.64302184  0.30732750     0.13000
H3174       H  0.69806305  0.63318244  0.30730586     0.13600
C3175       C  0.74448625  0.00826609  0.25796443    -0.16000
C3176       C  0.73289417  0.03256520  0.24573838    -0.31200
H3177       H  0.71115289  0.52776412  0.24903746     0.13000
H3178       H  0.71696464  0.05607007  0.24967260     0.13600
C3179       C  0.66272237  0.01603997  0.37476584    -0.12900
C3180       C  0.67396596  0.01629699  0.35988635    -0.14400
C3181       C  0.01614462  0.76979594  0.25398932    -0.16000
C3182       C  0.99966548  0.74620397  0.24318594    -0.31200
H3183       H  0.53925878  0.74793083  0.25071582     0.13000
H3184       H  0.98779631  0.72083552  0.24821528     0.13600
C3185       C  0.03979400  0.77459800  0.36005844    -0.12900
C3186       C  0.04590354  0.77974099  0.37532166    -0.14400
C3187       C  0.02735843  0.90523947  0.30697795    -0.16000
C3188       C  0.00248186  0.87786981  0.30619702    -0.31200
H3189       H  0.53193439  0.88614251  0.30919434     0.13000
H3190       H  0.97351190  0.88474019  0.30568019     0.13600
C3191       C  0.01581381  0.62874381  0.30877443    -0.16000
C3192       C  0.04389623  0.65307767  0.30738505    -0.31200
H3193       H  0.98827002  0.63916103  0.31069986     0.13000
H3194       H  0.53780967  0.64319079  0.30656477     0.13600
C3195       C  0.01478679  0.02904076  0.25390637    -0.16000
C3196       C  0.99194439  0.01556757  0.24181687    -0.31200
H3197       H  0.97508258  0.49819820  0.24960722     0.13000
H3198       H  0.48412408  0.05080656  0.24391346     0.13600
C3199       C  0.97824242  0.01947178  0.37511487    -0.12900
C3200       C  0.98439881  0.01662881  0.35971620    -0.14400
C3201       C  0.75032516  0.79766205  0.86042202    -0.12900
C3202       C  0.74838608  0.80603395  0.87565669    -0.14400
C3203       C  0.75074298  0.98802077  0.87548050    -0.12900
C3204       C  0.74769827  0.99044491  0.85987369    -0.14400
C3205       C  0.89202605  0.75306812  0.80955649    -0.16000
C3206       C  0.86863199  0.78148069  0.80694615    -0.31200
H3207       H  0.88041907  0.72619879  0.81249489     0.13000
H3208       H  0.87983931  0.80852696  0.80405262     0.13600
C3209       C  0.62259083  0.72408671  0.80751915    -0.16000
C3210       C  0.63957894  0.75717642  0.80815227    -0.31200
H3211       H  0.63938661  0.69949350  0.80718103     0.13000
H3212       H  0.62298072  0.78192706  0.80776191     0.13600
C3213       C  0.00809616  0.79861036  0.87510038    -0.12900
C3214       C  0.00783768  0.78814511  0.86017896    -0.14400
C3215       C  0.87496490  0.44474315  0.80129783    -0.16000
C3216       C  0.85382490  0.47472274  0.80291675    -0.31200
H3217       H  0.86438360  0.97121706  0.81474515     0.13000
H3218       H  0.86705683  0.50105138  0.80492231     0.13600
C3219       C  0.60255516  0.45471641  0.80170377    -0.16000
C3220       C  0.62557323  0.48365324  0.80247578    -0.31200
H3221       H  0.61652753  0.93202670  0.80621263     0.13000
H3222       H  0.61416245  0.51099244  0.80346724     0.13600
C3223       C  0.47090372  0.92128392  0.87413108    -0.12900
C3224       C  0.47629337  0.92891139  0.85893769    -0.14400
C3225       C  0.75978153  0.76503895  0.74272791    -0.16000
C3226       C  0.74759534  0.74414526  0.75619569    -0.31200
H3227       H  0.77743844  0.78838491  0.74526282     0.13000
H3228       H  0.73247326  0.71916365  0.75352508     0.13600
C3229       C  0.69344532  0.74287094  0.64036715    -0.12900
C3230       C  0.68211918  0.74099960  0.62551744    -0.14400
C3231       C  0.71530612  0.86601426  0.68822206    -0.16000
C3232       C  0.68682188  0.88804734  0.69224066    -0.31200
H3233       H  0.74036844  0.87926319  0.68373370     0.13000
H3234       H  0.66129748  0.87593948  0.69680856     0.13600
C3235       C  0.72859818  0.61200197  0.68872845    -0.16000
C3236       C  0.75297757  0.63924744  0.69152689    -0.31200
H3237       H  0.69990574  0.61937394  0.68713962     0.13000
H3238       H  0.78190213  0.63232390  0.69234337     0.13600
C3239       C  0.72394634  0.48445704  0.73709725    -0.16000
C3240       C  0.74458601  0.49944105  0.74967719    -0.31200
H3241       H  0.75377283  0.97606676  0.74498181     0.13000
H3242       H  0.76544177  0.51953291  0.74610531     0.13600
C3243       C  0.66349091  0.00799142  0.63919005    -0.12900
C3244       C  0.65394301  0.00874186  0.62400857    -0.14400
C3245       C  0.00128620  0.74390951  0.74399549    -0.16000
C3246       C  0.01631825  0.72547616  0.75755558    -0.31200
H3247       H  0.98047152  0.76436106  0.74646449     0.13000
H3248       H  0.47945481  0.75450372  0.75043493     0.13600
C3249       C  0.05906666  0.75735888  0.64067010    -0.12900
C3250       C  0.06514859  0.76536522  0.62553170    -0.14400
C3251       C  0.99123877  0.87438587  0.69301500    -0.16000
C3252       C  0.02330839  0.85586708  0.69374445    -0.31200
H3253       H  0.96569832  0.85899667  0.69233393     0.13000
H3254       H  0.52921812  0.84585538  0.68417463     0.13600
C3255       C  0.03901230  0.62689984  0.69125730    -0.16000
C3256       C  0.00997702  0.60472860  0.68805295    -0.31200
H3257       H  0.45360763  0.59531472  0.69184996     0.13000
H3258       H  0.98379600  0.61761821  0.68512347     0.13600
C3259       C  0.50500317  0.47609533  0.74062081    -0.16000
C3260       C  0.48478638  0.45309810  0.75050025    -0.31200
H3261       H  0.52273142  0.49602226  0.74679388     0.13000
H3262       H  0.96326990  0.95327951  0.75605126     0.13600
C3263       C  0.95885194  0.99854023  0.62530462    -0.12900
C3264       C  0.96337064  0.99384680  0.64080811    -0.14400
loop_ 
_geom_bond_atom_site_label_1 
_geom_bond_atom_site_label_2 
_geom_bond_distance 
_geom_bond_site_symmetry_2 
_ccdc_geom_bond_type 
O1         Cu825   2.031       .  S
O1         C1643   1.280       .  A
O2           Cu9   2.027   1_545  S
O2           C12   1.280       .  A
O3         Cu825   2.032       .  S
O3           C13   1.280       .  A
O4           Cu9   2.030       .  S
O4         C1646   1.279       .  A
O5         Cu826   2.032       .  S
O5           C14   1.280   1_455  A
O6          Cu10   2.008       .  S
O6         C1645   1.275       .  A
O7         Cu826   2.025   1_545  S
O7         C1644   1.280   1_455  A
O8          Cu10   2.065       .  S
O8           C11   1.286   1_455  A
Cu9         O817   2.044       .  S
Cu9         O819   2.024       .  S
Cu9       Cu2458   2.368       .  S
Cu10        O821   2.014       .  S
Cu10        O823   2.088       .  S
Cu10      Cu2457   2.368   1_455  S
C11        O1633   1.276       .  A
C11        C2435   1.496       .  S
C12        O1639   1.284       .  A
C12         C808   1.501       .  S
C13        O1638   1.275       .  A
C13         C816   1.442       .  S
C14        O1636   1.280       .  A
C14         C811   1.490       .  S
O15         Cu23   2.034       .  S
O15          C25   1.280       .  A
O16         Cu23   2.033       .  S
O16          C26   1.280       .  A
O17         Cu23   2.052       .  S
O17          C27   1.283       .  A
O18         Cu23   2.036       .  S
O18          C28   1.280       .  A
O19         Cu24   2.030       .  S
O19        C1660   1.279       .  A
O20         Cu24   2.038       .  S
O20        C1659   1.281   1_455  A
O21         Cu24   2.016       .  S
O21        C1658   1.277       .  A
O22         Cu24   2.002       .  S
O22        C1657   1.276   1_455  A
Cu23      Cu1656   2.368       .  S
Cu24      Cu1655   2.370   1_455  S
C25        O1654   1.284       .  A
C25         C807   1.505       .  S
C26        O1653   1.282       .  A
C26         C804   1.496       .  S
C27        O1652   1.277       .  A
C27         C801   1.460       .  S
C28        O1651   1.278       .  A
C28         C797   1.483       .  S
O29         Cu37   2.005       .  S
O29          C39   1.275       .  A
O30         Cu37   2.012       .  S
O30          C40   1.278       .  A
O31         Cu37   2.047       .  S
O31          C41   1.283       .  A
O32        Cu853   2.037   1_545  S
O32          C42   1.281       .  A
O33        Cu854   2.041   1_545  S
O33          C42   1.281       .  A
O34         Cu38   2.023       .  S
O34          C41   1.278       .  A
O35         Cu38   2.010       .  S
O35          C40   1.276       .  A
O36         Cu38   2.011       .  S
O36          C39   1.277       .  A
Cu37        O848   2.058       .  S
Cu37        Cu38   2.373       .  S
Cu38        O849   2.015       .  S
C39         C795   1.435       .  S
C40        C1607   1.471       .  S
C41         C784   1.493       .  S
C42         C787   1.498       .  S
O43         Cu51   2.058       .  S
O43          C53   1.283       .  A
O44         Cu51   2.044       .  S
O44          C54   1.282       .  A
O45         Cu51   2.028       .  S
O45          C55   1.278       .  A
O46         Cu51   2.018       .  S
O46          C56   1.278       .  A
O47         Cu52   2.041       .  S
O47          C56   1.281       .  A
O48         Cu52   2.043       .  S
O48          C55   1.281       .  A
O49         Cu52   2.024       .  S
O49          C54   1.279       .  A
O50         Cu52   2.021       .  S
O50          C53   1.278       .  A
Cu51        Cu52   2.369       .  S
C53         C788   1.496       .  S
C54         C783   1.493       .  S
C55         C781   1.456       .  S
C56         C777   1.485       .  S
O57         Cu65   2.028       .  S
O57         C883   1.280       .  A
O58         Cu65   2.032       .  S
O58         C884   1.279       .  A
O59       Cu1697   2.009       .  S
O59         C885   1.276       .  A
O60         Cu65   2.025   1_455  S
O60         C886   1.279       .  A
O61         Cu66   2.074   1_455  S
O61          C70   1.286       .  A
O62       Cu1698   2.019       .  S
O62          C69   1.278       .  A
O63         Cu66   2.032       .  S
O63          C68   1.278       .  A
O64         Cu66   2.018       .  S
O64          C67   1.277   1_545  A
Cu65       O1691   2.031       .  S
Cu65       Cu882   2.370       .  S
Cu66       O1694   2.090       .  S
Cu66       Cu881   2.365   1_545  S
C67         O873   1.283       .  A
C67         C812   1.492       .  S
C68         O874   1.284   1_545  A
C68        C1592   1.466   1_655  S
C69         O875   1.284       .  A
C69         C767   1.499       .  S
C70         O876   1.276   1_545  A
C70         C771   1.497       .  S
O71       Cu1711   2.046       .  S
O71          C81   1.283       .  A
O72         Cu79   2.047       .  S
O72          C82   1.284       .  A
O73         Cu79   2.024       .  S
O73          C83   1.278       .  A
O74         Cu79   2.019       .  S
O74          C84   1.277       .  A
O75         Cu80   2.027       .  S
O75          C84   1.279       .  A
O76         Cu80   2.030       .  S
O76          C83   1.280       .  A
O77         Cu80   2.048       .  S
O77          C82   1.280       .  A
O78       Cu1712   2.037       .  S
O78          C81   1.280       .  A
Cu79       O1703   2.066       .  S
Cu79        Cu80   2.368       .  S
Cu80       O1710   2.036       .  S
C81         C761   1.500       .  S
C82         C757   1.502       .  S
C83         C798   1.484       .  S
C84         C766   1.446       .  S
O85         Cu93   2.007       .  S
O85         C911   1.276       .  A
O86         Cu93   2.008       .  S
O86         C912   1.276       .  A
O87         Cu93   2.051       .  S
O87         C913   1.283       .  A
O88         Cu93   2.039       .  S
O88         C914   1.282       .  A
O89         Cu94   2.027       .  S
O89          C98   1.280   1_545  A
O90         Cu94   2.041       .  S
O90          C97   1.281       .  A
O91         Cu94   2.004       .  S
O91          C96   1.275       .  A
O92         Cu94   2.005       .  S
O92          C95   1.276       .  A
Cu93       Cu910   2.373       .  S
Cu94       Cu909   2.371   1_545  S
C95         O901   1.279   1_545  A
C95         C792   1.471       .  S
C96         O902   1.277   1_545  A
C96        C1572   1.435       .  S
C97         O903   1.283   1_545  A
C97         C772   1.501       .  S
C98         O904   1.282       .  A
C98         C768   1.495       .  S
O99        Cu107   2.043       .  S
O99         C109   1.281       .  A
O100       Cu107   2.057       .  S
O100        C110   1.283       .  A
O101       Cu107   2.019       .  S
O101        C111   1.278       .  A
O102       Cu107   2.020       .  S
O102        C112   1.277       .  A
O103       Cu108   2.073       .  S
O103        C112   1.287       .  A
O104       Cu108   2.062       .  S
O104        C111   1.284       .  A
O105       Cu108   2.022       .  S
O105        C110   1.276       .  A
O106       Cu108   2.016       .  S
O106        C109   1.278       .  A
Cu107      Cu108   2.367       .  S
C109        C778   1.487       .  S
C110        C753   1.460       .  S
C111        C762   1.497       .  S
C112        C758   1.505       .  S
O113       Cu121   2.022       .  S
O113       C1755   1.277       .  A
O114       Cu121   2.028       .  S
O114       C1756   1.279       .  A
O115       Cu937   2.004       .  S
O115       C1757   1.278   1_455  A
O116       Cu121   2.045       .  S
O116       C1758   1.283       .  A
O117       Cu122   2.017       .  S
O117        C126   1.280       .  A
O118       Cu938   2.045       .  S
O118        C125   1.283       .  A
O119       Cu122   2.016       .  S
O119        C124   1.277       .  A
O120       Cu122   2.018       .  S
O120        C123   1.278       .  A
Cu121       O931   2.049       .  S
Cu121     Cu1754   2.371   1_455  S
Cu122       O934   2.028       .  S
Cu122     Cu1753   2.371       .  S
C123       O1745   1.276       .  A
C123        C752   1.439       .  S
C124       O1746   1.278       .  A
C124        C747   1.475       .  S
C125       O1747   1.280       .  A
C125        C743   1.500       .  S
C126       O1748   1.281       .  A
C126        C739   1.495       .  S
O127       Cu135   2.036       .  S
O127       C1769   1.280       .  A
O128       Cu135   2.041       .  S
O128       C1770   1.281   1_455  A
O129       Cu135   2.009       .  S
O129       C1771   1.277       .  A
O130       Cu135   2.012       .  S
O130       C1772   1.277   1_455  A
O131       Cu136   2.002       .  S
O131        C140   1.276       .  A
O132       Cu136   2.013       .  S
O132        C139   1.276       .  A
O133       Cu136   2.076       .  S
O133        C138   1.287       .  A
O134       Cu136   2.070       .  S
O134        C137   1.285       .  A
Cu135     Cu1768   2.371   1_455  S
Cu136     Cu1767   2.366       .  S
C137       O1759   1.276       .  A
C137        C733   1.494       .  S
C138       O1760   1.275       .  A
C138        C737   1.467       .  S
C139       O1761   1.287       .  A
C139        C744   1.503       .  S
C140       O1762   1.284       .  A
C140        C740   1.488       .  S
O141       Cu149   2.018       .  S
O141        C151   1.279       .  A
O142       Cu149   2.021       .  S
O142        C152   1.278       .  A
O143       Cu149   2.027       .  S
O143        C153   1.280       .  A
O144       Cu965   2.021       .  S
O144        C154   1.279       .  A
O145       Cu966   2.045       .  S
O145        C154   1.282       .  A
O146       Cu150   2.033       .  S
O146        C153   1.280       .  A
O147       Cu150   2.012       .  S
O147        C152   1.276       .  A
O148       Cu150   2.009       .  S
O148        C151   1.276       .  A
Cu149       O960   2.033       .  S
Cu149      Cu150   2.373       .  S
Cu150       O961   2.025       .  S
C151        C727   1.472       .  S
C152        C732   1.441       .  S
C153        C719   1.491       .  S
C154        C723   1.491       .  S
O155       Cu163   2.033       .  S
O155        C165   1.280       .  A
O156       Cu163   2.043       .  S
O156        C166   1.281       .  A
O157       Cu163   2.020       .  S
O157        C167   1.277       .  A
O158       Cu163   2.026       .  S
O158        C168   1.279       .  A
O159       Cu164   2.044       .  S
O159        C168   1.281       .  A
O160       Cu164   2.035       .  S
O160        C167   1.280       .  A
O161       Cu164   2.024       .  S
O161        C166   1.279       .  A
O162       Cu164   2.027       .  S
O162        C165   1.280       .  A
Cu163      Cu164   2.369       .  S
C165        C720   1.490       .  S
C166        C724   1.495       .  S
C167        C718   1.450       .  S
C168        C713   1.489       .  S
O169       Cu177   2.037       .  S
O169       C1811   1.281       .  A
O170       Cu177   2.038       .  S
O170       C1812   1.281       .  A
O171       Cu177   1.993       .  S
O171       C1813   1.272       .  A
O172       Cu993   1.985       .  S
O172       C1814   1.279       .  A
O173       Cu994   2.004       .  S
O173        C182   1.277       .  A
O174       Cu178   1.976       .  S
O174        C181   1.277       .  A
O175       Cu178   2.016       .  S
O175        C180   1.279       .  A
O176       Cu178   2.008       .  S
O176        C179   1.276       .  A
Cu177       O988   1.977       .  S
Cu177     Cu1810   2.376       .  S
Cu178       O989   1.990       .  S
Cu178     Cu1809   2.379       .  S
C179       O1801   1.278       .  A
C179        C751   1.438       .  S
C180       O1802   1.280       .  A
C180        C704   1.487       .  S
C181       O1803   1.274       .  A
C181        C684   1.458       .  S
C182       O1804   1.273       .  A
C182        C694   1.461       .  S
O183       Cu191   2.023       .  S
O183       C1825   1.278       .  A
O184       Cu191   2.034       .  S
O184       C1826   1.282       .  A
O185       Cu191   1.996       .  S
O185       C1827   1.278       .  A
O186       Cu191   1.996   1_455  S
O186       C1828   1.273       .  A
O187       Cu192   2.002       .  S
O187        C196   1.279       .  A
O188       Cu192   1.996       .  S
O188        C195   1.276       .  A
O189       Cu192   2.024       .  S
O189        C194   1.280       .  A
O190       Cu192   2.029       .  S
O190        C193   1.278       .  A
Cu191     Cu1824   2.376       .  S
Cu192     Cu1823   2.373       .  S
C193       O1815   1.285       .  A
C193        C738   1.467       .  S
C194       O1816   1.284       .  A
C194        C674   1.504       .  S
C195       O1817   1.274       .  A
C195        C697   1.457       .  S
C196       O1818   1.272       .  A
C196        C687   1.458       .  S
O197       Cu205   2.007       .  S
O197        C207   1.276       .  A
O198       Cu205   2.003       .  S
O198        C208   1.277       .  A
O199       Cu205   1.996       .  S
O199        C209   1.278       .  A
O200      Cu1021   1.991   1_545  S
O200        C210   1.272       .  A
O201      Cu1022   1.988       .  S
O201        C210   1.278       .  A
O202       Cu206   1.990       .  S
O202        C209   1.272       .  A
O203       Cu206   2.028       .  S
O203        C208   1.280       .  A
O204       Cu206   2.024       .  S
O204        C207   1.279       .  A
Cu205      O1016   2.000       .  S
Cu205      Cu206   2.380       .  S
Cu206      O1017   1.982       .  S
C207        C731   1.440       .  S
C208        C664   1.479       .  S
C209        C647   1.451       .  S
C210        C654   1.450       .  S
O211       Cu219   2.000       .  S
O211        C221   1.273       .  A
O212       Cu219   1.992       .  S
O212        C222   1.278       .  A
O213       Cu219   2.029       .  S
O213        C223   1.280       .  A
O214       Cu219   2.031       .  S
O214        C224   1.279       .  A
O215       Cu220   2.028       .  S
O215        C224   1.279       .  A
O216       Cu220   2.034       .  S
O216        C223   1.281       .  A
O217       Cu220   1.988       .  S
O217        C222   1.271       .  A
O218       Cu220   1.985       .  S
O218        C221   1.277       .  A
Cu219      Cu220   2.379       .  S
C221        C644   1.452       .  S
C222        C657   1.450       .  S
C223        C634   1.489       .  S
C224        C717   1.451       .  S
O225       Cu233   2.012       .  S
O225       C1051   1.279       .  A
O226       Cu233   2.016       .  S
O226       C1052   1.276       .  A
O227      Cu1865   1.988       .  S
O227       C1053   1.270       .  A
O228       Cu233   1.981       .  S
O228       C1054   1.277       .  A
O229       Cu234   2.001       .  S
O229        C238   1.274       .  A
O230      Cu1866   1.983       .  S
O230        C237   1.277       .  A
O231       Cu234   2.014       .  S
O231        C236   1.277       .  A
O232       Cu234   2.016       .  S
O232        C235   1.280       .  A
Cu233      O1859   1.979       .  S
Cu233     Cu1050   2.375       .  S
Cu234      O1862   1.989       .  S
Cu234     Cu1049   2.378       .  S
C235       O1041   1.278       .  A
C235        C622   1.483       .  S
C236       O1042   1.277       .  A
C236        C632   1.440       .  S
C237       O1043   1.273       .  A
C237        C612   1.452       .  S
C238       O1044   1.277       .  A
C238        C602   1.454       .  S
O239       Cu247   2.021       .  S
O239        C249   1.277       .  A
O240       Cu247   2.012       .  S
O240        C250   1.279       .  A
O241       Cu247   1.959       .  S
O241        C251   1.273       .  A
O242      Cu1879   1.998       .  S
O242        C252   1.273   1_655  A
O243      Cu1880   1.985       .  S
O243        C252   1.278       .  A
O244       Cu248   1.998       .  S
O244        C251   1.277       .  A
O245       Cu248   2.029       .  S
O245        C250   1.280       .  A
O246       Cu248   2.035       .  S
O246        C249   1.280       .  A
Cu247      O1874   1.957       .  S
Cu247      Cu248   2.374       .  S
Cu248      O1875   1.993       .  S
C249        C599   1.450       .  S
C250        C590   1.489       .  S
C251        C570   1.461       .  S
C252        C580   1.454       .  S
O253       Cu261   2.017       .  S
O253       C1079   1.278       .  A
O254       Cu261   2.021       .  S
O254       C1080   1.280       .  A
O255       Cu261   2.006       .  S
O255       C1081   1.273       .  A
O256       Cu261   1.985       .  S
O256       C1082   1.277   1_545  A
O257       Cu262   2.003       .  S
O257        C266   1.274       .  A
O258       Cu262   1.995       .  S
O258        C265   1.278       .  A
O259       Cu262   2.004       .  S
O259        C264   1.278       .  A
O260       Cu262   2.003       .  S
O260        C263   1.275       .  A
Cu261     Cu1078   2.380       .  S
Cu262     Cu1077   2.377       .  S
C263       O1069   1.277       .  A
C263        C568   1.435       .  S
C264       O1070   1.279       .  A
C264        C561   1.478       .  S
C265       O1071   1.271       .  A
C265        C615   1.453       .  S
C266       O1072   1.276       .  A
C266        C605   1.452       .  S
O267       Cu275   2.000       .  S
O267        C277   1.272       .  A
O268       Cu275   1.967       .  S
O268        C278   1.274       .  A
O269       Cu275   2.063       .  S
O269        C279   1.285       .  A
O270       Cu275   2.069       .  S
O270        C280   1.286       .  A
O271       Cu276   2.021       .  S
O271        C280   1.276       .  A
O272       Cu276   2.016       .  S
O272        C279   1.279       .  A
O273       Cu276   1.988       .  S
O273        C278   1.275       .  A
O274       Cu276   1.988       .  S
O274        C277   1.278       .  A
Cu275      Cu276   2.373       .  S
C277        C583   1.454       .  S
C278        C573   1.457       .  S
C279        C546   1.502       .  S
C280        C556   1.465       .  S
O281       Cu289   2.055       .  S
O281       C1107   1.283   1_545  A
O282       Cu289   2.045       .  S
O282       C1108   1.282       .  A
O283      Cu1921   2.048       .  S
O283       C1109   1.282       .  A
O284       Cu289   1.994       .  S
O284       C1110   1.274       .  A
O285       Cu290   2.037       .  S
O285        C294   1.282       .  A
O286      Cu1922   2.053       .  S
O286        C293   1.283       .  A
O287       Cu290   2.015       .  S
O287        C292   1.278       .  A
O288       Cu290   2.015       .  S
O288        C291   1.277       .  A
Cu289      O1915   2.013       .  S
Cu289     Cu1106   2.369   1_545  S
Cu290      O1918   2.045       .  S
Cu290     Cu1105   2.372       .  S
C291       O1097   1.277       .  A
C291        C631   1.440       .  S
C292       O1098   1.277       .  A
C292        C748   1.475       .  S
C293       O1099   1.277       .  A
C293        C541   1.492       .  S
C294       O1100   1.279       .  A
C294        C537   1.493       .  S
O295       Cu303   2.050       .  S
O295        C305   1.283       .  A
O296       Cu303   2.039       .  S
O296        C306   1.280       .  A
O297       Cu303   2.043       .  S
O297        C307   1.280       .  A
O298      Cu1935   2.040   1_455  S
O298        C308   1.280       .  A
O299      Cu1936   2.028   1_455  S
O299        C308   1.280       .  A
O300       Cu304   2.051       .  S
O300        C307   1.283       .  A
O301       Cu304   2.017       .  S
O301        C306   1.276       .  A
O302       Cu304   2.032       .  S
O302        C305   1.279       .  A
Cu303      O1930   2.034       .  S
Cu303      Cu304   2.365       .  S
Cu304      O1931   2.059       .  S
C305        C734   1.497       .  S
C306        C600   1.450       .  S
C307        C529   1.503       .  S
C308        C533   1.491       .  S
O309       Cu317   2.018       .  S
O309        C319   1.278       .  A
O310       Cu317   2.018       .  S
O310        C320   1.278       .  A
O311       Cu317   2.016       .  S
O311        C321   1.278       .  A
O312       Cu317   2.024       .  S
O312        C322   1.278       .  A
O313       Cu318   2.045       .  S
O313       C1138   1.282       .  A
O314       Cu318   2.032       .  S
O314       C1137   1.282       .  A
O315       Cu318   1.996       .  S
O315       C1136   1.273       .  A
O316       Cu318   1.990       .  S
O316       C1135   1.274       .  A
Cu317     Cu1134   2.372       .  S
Cu318     Cu1133   2.373   1_545  S
C319       O1132   1.278       .  A
C319        C728   1.475       .  S
C320       O1131   1.275       .  A
C320        C567   1.436       .  S
C321       O1130   1.283       .  A
C321        C538   1.491       .  S
C322       O1129   1.283       .  A
C322        C542   1.493       .  S
O323       Cu331   2.058       .  S
O323        C333   1.283       .  A
O324       Cu331   2.047       .  S
O324        C334   1.282       .  A
O325       Cu331   2.013       .  S
O325        C335   1.277       .  A
O326       Cu331   2.013       .  S
O326        C336   1.277       .  A
O327       Cu332   2.076       .  S
O327        C336   1.286       .  A
O328       Cu332   2.054       .  S
O328        C335   1.284       .  A
O329       Cu332   2.020       .  S
O329        C334   1.278       .  A
O330       Cu332   2.037       .  S
O330        C333   1.278       .  A
Cu331      Cu332   2.365       .  S
C333        C555   1.466       .  S
C334        C714   1.489       .  S
C335        C534   1.496       .  S
C336        C530   1.500       .  S
O337       Cu345   1.994       .  S
O337        C347   1.278       .  A
O338      Cu1977   2.005       .  S
O338        C348   1.275       .  A
O339       Cu345   2.030       .  S
O339        C349   1.279   1_455  A
O340      Cu1977   2.006       .  S
O340        C350   1.278       .  A
O341      Cu1978   2.006       .  S
O341       C1166   1.278       .  A
O342       Cu346   2.065       .  S
O342       C1165   1.284       .  A
O343      Cu1978   1.980       .  S
O343       C1164   1.277       .  A
O344       Cu346   1.987       .  S
O344       C1163   1.270       .  A
Cu345      O1970   2.007   1_455  S
Cu345      O1972   2.027   1_455  S
Cu345     Cu1162   2.376   1_455  S
Cu346      O1973   2.051       .  S
Cu346      O1975   1.955   1_455  S
Cu346     Cu1161   2.370       .  S
C347       O1160   1.272   1_455  A
C347        C523   1.453       .  S
C348       O1159   1.275       .  A
C348        C510   1.450       .  S
C349       O1158   1.279       .  A
C349        C775   1.450       .  S
C350       O1157   1.280       .  A
C350        C625   1.483       .  S
O351       Cu359   2.001       .  S
O351        C361   1.278       .  A
O352       Cu359   2.009       .  S
O352        C362   1.275       .  A
O353       Cu359   1.956       .  S
O353        C363   1.274       .  A
O354      Cu1991   1.996   1_455  S
O354        C364   1.271       .  A
O355      Cu1992   1.993       .  S
O355        C364   1.278       .  A
O356       Cu360   1.997       .  S
O356        C363   1.276       .  A
O357       Cu360   2.038       .  S
O357        C362   1.281       .  A
O358       Cu360   2.037       .  S
O358        C361   1.282       .  A
Cu359      O1986   1.955       .  S
Cu359      Cu360   2.375       .  S
Cu360      O1987   1.993       .  S
C361        C593   1.489       .  S
C362        C765   1.446       .  S
C363        C490   1.457       .  S
C364        C500   1.455       .  S
O365       Cu373   2.011       .  S
O365       C1191   1.277       .  A
O366       Cu373   2.013       .  S
O366       C1192   1.279       .  A
O367       Cu373   1.993   1_565  S
O367       C1193   1.278       .  A
O368       Cu373   2.005       .  S
O368       C1194   1.273       .  A
O369       Cu374   1.972       .  S
O369        C378   1.275       .  A
O370       Cu374   1.984       .  S
O370        C377   1.271       .  A
O371       Cu374   2.013       .  S
O371        C376   1.279       .  A
O372       Cu374   2.010       .  S
O372        C375   1.276       .  A
Cu373     Cu1190   2.380       .  S
Cu374     Cu1189   2.378       .  S
C375       O1181   1.276       .  A
C375        C755   1.434       .  S
C376       O1182   1.278       .  A
C376        C558   1.478       .  S
C377       O1183   1.278       .  A
C377        C513   1.450       .  S
C378       O1184   1.275       .  A
C378        C520   1.452       .  S
O379       Cu387   1.987       .  S
O379        C389   1.274       .  A
O380       Cu387   1.986       .  S
O380        C390   1.278       .  A
O381       Cu387   2.022       .  S
O381        C391   1.277       .  A
O382       Cu387   2.027       .  S
O382        C392   1.281       .  A
O383       Cu388   2.051       .  S
O383        C392   1.282       .  A
O384       Cu388   2.057       .  S
O384        C391   1.284       .  A
O385       Cu388   1.997       .  S
O385        C390   1.271       .  A
O386       Cu388   1.967       .  S
O386        C389   1.275       .  A
Cu387      Cu388   2.374       .  S
C389        C493   1.454       .  S
C390        C503   1.455       .  S
C391        C754   1.460       .  S
C392        C549   1.502       .  S
O393       Cu401   2.041       .  S
O393       C2035   1.282       .  A
O394       Cu401   2.046       .  S
O394       C2036   1.282       .  A
O395      Cu1217   1.979       .  S
O395       C2037   1.278       .  A
O396       Cu401   1.991       .  S
O396       C2038   1.273       .  A
O397       Cu402   1.998       .  S
O397        C406   1.279       .  A
O398      Cu1218   2.014       .  S
O398        C405   1.278       .  A
O399       Cu402   2.019       .  S
O399        C404   1.280       .  A
O400       Cu402   2.018       .  S
O400        C403   1.277       .  A
Cu401      O1211   1.976       .  S
Cu401     Cu2034   2.376       .  S
Cu402      O1214   2.006       .  S
Cu402     Cu2033   2.378       .  S
C403       O2025   1.278       .  A
C403        C815   1.442       .  S
C404       O2026   1.280       .  A
C404        C707   1.488       .  S
C405       O2027   1.272       .  A
C405        C480   1.461       .  S
C406       O2028   1.273       .  A
C406        C470   1.457       .  S
O407       Cu415   1.988       .  S
O407        C417   1.274       .  A
O408       Cu415   1.984       .  S
O408        C418   1.278       .  A
O409       Cu415   2.027       .  S
O409        C419   1.281       .  A
O410       Cu415   2.020       .  S
O410        C420   1.277       .  A
O411       Cu416   2.015       .  S
O411       C2052   1.276       .  A
O412       Cu416   2.021       .  S
O412       C2051   1.280       .  A
O413       Cu416   2.003   1_455  S
O413       C2050   1.275   1_455  A
O414       Cu416   2.004       .  S
O414       C2049   1.279       .  A
Cu415     Cu2048   2.372       .  S
Cu416     Cu2047   2.374       .  S
C417       O2046   1.276       .  A
C417        C483   1.458       .  S
C418       O2045   1.273       .  A
C418        C473   1.456       .  S
C419       O2044   1.283       .  A
C419        C677   1.503       .  S
C420       O2043   1.284       .  A
C420        C802   1.459       .  S
O421       Cu429   2.018       .  S
O421        C431   1.280       .  A
O422       Cu429   2.015       .  S
O422        C432   1.277       .  A
O423       Cu429   1.993       .  S
O423        C433   1.272       .  A
O424      Cu1245   1.985       .  S
O424        C434   1.277       .  A
O425      Cu1246   2.001   1_545  S
O425        C434   1.273       .  A
O426       Cu430   1.992       .  S
O426        C433   1.279       .  A
O427       Cu430   2.004       .  S
O427        C432   1.276       .  A
O428       Cu430   2.007       .  S
O428        C431   1.277       .  A
Cu429      O1240   1.978       .  S
Cu429      Cu430   2.382       .  S
Cu430      O1241   1.992       .  S
C431        C667   1.475       .  S
C432        C796   1.434       .  S
C433        C450   1.452       .  S
C434        C460   1.453       .  S
O435       Cu443   2.033       .  S
O435        C445   1.279       .  A
O436       Cu443   2.030       .  S
O436        C446   1.280       .  A
O437       Cu443   1.999       .  S
O437        C447   1.273       .  A
O438       Cu443   1.993       .  S
O438        C448   1.278       .  A
O439       Cu444   1.993       .  S
O439        C448   1.272       .  A
O440       Cu444   1.989       .  S
O440        C447   1.278       .  A
O441       Cu444   2.037       .  S
O441        C446   1.281       .  A
O442       Cu444   2.038       .  S
O442        C445   1.280       .  A
Cu443      Cu444   2.377       .  S
C445        C782   1.456       .  S
C446        C637   1.490       .  S
C447        C453   1.453       .  S
C448        C463   1.453       .  S
C449        C450   1.400       .  A
C449        C454   1.394       .  A
C449        H455   1.084       .  S
C450        C451   1.400       .  A
C451        C452   1.393       .  A
C451        H456   1.084       .  S
C452        C453   1.400       .  A
C452        H457   1.084       .  S
C453        C454   1.401       .  A
C454        H458   1.084       .  S
C459        C460   1.401       .  A
C459        C464   1.393       .  A
C459        H465   1.084       .  S
C460        C461   1.401       .  A
C461        C462   1.394       .  A
C461        H466   1.084       .  S
C462        C463   1.400       .  A
C462        H467   1.084       .  S
C463        C464   1.400       .  A
C464        H468   1.084       .  S
C469        C470   1.400       .  A
C469        C474   1.396       .  A
C469        H475   1.084       .  S
C470       C2103   1.402       .  A
C471        C472   1.398       .  A
C471       C2102   1.401       .  A
C471        H476   1.083       .  S
C472       C2105   1.403       .  A
C472        H477   1.083       .  S
C473        C474   1.403       .  A
C473       C2104   1.401       .  A
C474        H478   1.084       .  S
C479        C484   1.397       .  A
C479       C2112   1.403       .  A
C479        H485   1.084       .  S
C480        C481   1.402       .  A
C480       C2111   1.403       .  A
C481        C482   1.399       .  A
C481        H486   1.083       .  S
C482        C483   1.405       .  A
C482        H487   1.083       .  S
C483       C2116   1.398       .  A
C484       C2115   1.401       .  A
C484        H488   1.084       .  S
C489        C490   1.402       .  A
C489        C494   1.396       .  A
C489        H495   1.083       .  S
C490        C491   1.402       .  A
C491        C492   1.381       .  A
C491        H496   1.084       .  S
C492        C493   1.398       .  A
C492        H497   1.084       .  S
C493        C494   1.404       .  A
C494        H498   1.083       .  S
C499        C500   1.402       .  A
C499        C504   1.394       .  A
C499        H505   1.084       .  S
C500        C501   1.399       .  A
C501        C502   1.395       .  A
C501        H506   1.084       .  S
C502        C503   1.403       .  A
C502        H507   1.084       .  S
C503        C504   1.400       .  A
C504        H508   1.084       .  S
C509        C514   1.393       .  A
C509       C1326   1.402       .  A
C509        H515   1.084       .  S
C510        C511   1.401       .  A
C510       C1325   1.400       .  A
C511        C512   1.395       .  A
C511        H516   1.084       .  S
C512        C513   1.400       .  A
C512        H517   1.084       .  S
C513       C1330   1.398       .  A
C514       C1329   1.399       .  A
C514        H518   1.084       .  S
C519        C520   1.401       .  A
C519        C524   1.394       .  A
C519        H525   1.084       .  S
C520       C1337   1.401       .  A
C521        C522   1.395       .  A
C521       C1336   1.401       .  A
C521        H526   1.084       .  S
C522       C1339   1.401       .  A
C522        H527   1.084       .  S
C523        C524   1.399       .  A
C523       C1338   1.400       .  A
C524        H528   1.084       .  S
C529        C530   1.352       .  D
C529        H531   1.085       .  S
C530        H532   1.086       .  S
C533        C534   1.354       .  D
C533        H535   1.087       .  S
C534        H536   1.086       .  S
C537        C538   1.349       .  D
C537       H1355   1.087       .  S
C538        H540   1.087       .  S
H539       C1353   1.087       .  S
C541        C542   1.348       .  D
C541        H543   1.086       .  S
C542       H1360   1.086       .  S
H544       C1358   1.086       .  S
C545        C546   1.410   1_556  A
C545        C550   1.414       .  A
C545        H551   1.083   1_556  S
C546        C547   1.408   1_554  A
C547        C548   1.401       .  A
C547        H552   1.083   1_556  S
C548        C549   1.407       .  A
C548        H553   1.083       .  S
C549        C550   1.412       .  A
C550        H554   1.083       .  S
C555        C556   1.224       .  T
C557        C562   1.401   1_556  A
C557       C1374   1.407       .  A
C557        H563   1.083       .  S
C558        C559   1.405       .  A
C558       C1373   1.405       .  A
C559        C560   1.398   1_556  A
C559        H564   1.083       .  S
C560        C561   1.406       .  A
C560        H565   1.083       .  S
C561       C1378   1.404       .  A
C562       C1377   1.406       .  A
C562        H566   1.083       .  S
C567        C568   1.206       .  T
C569        C570   1.403       .  A
C569        C574   1.383       .  A
C569        H575   1.083       .  S
C570        C571   1.403       .  A
C571        C572   1.395       .  A
C571        H576   1.083       .  S
C572        C573   1.403       .  A
C572        H577   1.083       .  S
C573        C574   1.400       .  A
C574        H578   1.084       .  S
C579        C580   1.400       .  A
C579        C584   1.393       .  A
C579        H585   1.083       .  S
C580        C581   1.401       .  A
C581        C582   1.394       .  A
C581        H586   1.084       .  S
C582        C583   1.400       .  A
C582        H587   1.084       .  S
C583        C584   1.401       .  A
C584        H588   1.084       .  S
C589        C590   1.405       .  A
C589        C594   1.396   1_554  A
C589        H595   1.083       .  S
C590       C2223   1.409       .  A
C591        C592   1.404   1_554  A
C591       C2222   1.408       .  A
C591        H596   1.083       .  S
C592       C2225   1.408       .  A
C592        H597   1.083       .  S
C593        C594   1.407       .  A
C593       C2224   1.407       .  A
C594        H598   1.083       .  S
C599        C600   1.215       .  T
C601        C602   1.399       .  A
C601        C606   1.388       .  A
C601        H607   1.084       .  S
C602       C1419   1.401       .  A
C603        C604   1.394       .  A
C603       C1418   1.399       .  A
C603        H608   1.084       .  S
C604       C1421   1.402       .  A
C604        H609   1.084       .  S
C605        C606   1.400       .  A
C605       C1420   1.401       .  A
C606        H610   1.084       .  S
C611        C616   1.395       .  A
C611       C1428   1.399       .  A
C611        H617   1.084       .  S
C612        C613   1.399       .  A
C612       C1427   1.403       .  A
C613        C614   1.393       .  A
C613        H618   1.084       .  S
C614        C615   1.401       .  A
C614        H619   1.084       .  S
C615       C1432   1.398       .  A
C616       C1431   1.403       .  A
C616        H620   1.084       .  S
C621        C626   1.411   1_554  A
C621       C3070   1.411       .  A
C621        H627   1.083       .  S
C622        C623   1.405       .  A
C622       C3069   1.407       .  A
C623        C624   1.398   1_554  A
C623        H628   1.083       .  S
C624        C625   1.407       .  A
C624        H629   1.083       .  S
C625       C3074   1.405       .  A
C626       C3073   1.410       .  A
C626        H630   1.083       .  S
C631        C632   1.209       .  T
C633        C634   1.407       .  A
C633        C638   1.406       .  A
C633        H639   1.083       .  S
C634        C635   1.406       .  A
C635        C636   1.405       .  A
C635        H640   1.083       .  S
C636        C637   1.406       .  A
C636        H641   1.083       .  S
C637        C638   1.407       .  A
C638        H642   1.083       .  S
C643        C644   1.402       .  A
C643        C648   1.395       .  A
C643        H649   1.084       .  S
C644        C645   1.400       .  A
C645        C646   1.392       .  A
C645        H650   1.084       .  S
C646        C647   1.401       .  A
C646        H651   1.084       .  S
C647        C648   1.399       .  A
C648        H652   1.083       .  S
C653        C654   1.400       .  A
C653        C658   1.393       .  A
C653        H659   1.084       .  S
C654        C655   1.400       .  A
C655        C656   1.392       .  A
C655        H660   1.084       .  S
C656        C657   1.400       .  A
C656        H661   1.084       .  S
C657        C658   1.399       .  A
C658        H662   1.084       .  S
C663        C664   1.406       .  A
C663        C668   1.398       .  A
C663        H669   1.083       .  S
C664       C1481   1.404       .  A
C665        C666   1.400       .  A
C665       C1480   1.404       .  A
C665        H670   1.083       .  S
C666       C1483   1.404       .  A
C666        H671   1.083       .  S
C667        C668   1.402       .  A
C667       C1482   1.406       .  A
C668        H672   1.083       .  S
C673        C678   1.404       .  A
C673       C2306   1.407       .  A
C673        H679   1.083       .  S
C674        C675   1.409       .  A
C674       C2305   1.411       .  A
C675        C676   1.403       .  A
C675        H680   1.083       .  S
C676        C677   1.408       .  A
C676        H681   1.083       .  S
C677       C2310   1.411       .  A
C678       C2309   1.408       .  A
C678        H682   1.083       .  S
C683        C688   1.397       .  A
C683       C2316   1.399       .  A
C683        H689   1.083       .  S
C684        C685   1.402       .  A
C684       C2315   1.404       .  A
C685        C686   1.396       .  A
C685        H690   1.084       .  S
C686        C687   1.402       .  A
C686        H691   1.084       .  S
C687       C2320   1.400       .  A
C688       C2319   1.403       .  A
C688        H692   1.083       .  S
C693        C698   1.397       .  A
C693       C2326   1.402       .  A
C693        H699   1.083       .  S
C694        C695   1.404       .  A
C694       C2325   1.402       .  A
C695        C696   1.397       .  A
C695        H700   1.083       .  S
C696        C697   1.403       .  A
C696        H701   1.083       .  S
C697       C2330   1.399       .  A
C698       C2329   1.402       .  A
C698        H702   1.084       .  S
C703        C708   1.404       .  A
C703       C1520   1.407       .  A
C703        H709   1.083       .  S
C704       C1519   1.407       .  A
C704       C2337   1.407       .  A
C705        C706   1.409       .  A
C705       C2336   1.409       .  A
C705        H710   1.082       .  S
C706       C2339   1.409       .  A
C706        H711   1.083       .  S
C707       C2338   1.407       .  A
C707       C1524   1.407       .  A
C708       C1523   1.408   1_545  A
C708        H712   1.083       .  S
C713        C714   1.349       .  D
C713        H715   1.087       .  S
C714        H716   1.086       .  S
C717        C718   1.215       .  T
C719        C720   1.350       .  D
C719        H721   1.086       .  S
C720        H722   1.087       .  S
C723        C724   1.351       .  D
C723        H725   1.087       .  S
C724        H726   1.086       .  S
C727        C728   1.343       .  D
C727       H1545   1.087       .  S
C728        H730   1.087       .  S
H729       C1543   1.087   1_565  S
C731        C732   1.209       .  T
C733        C734   1.348       .  D
C733       H2367   1.087       .  S
C734        H736   1.086       .  S
H735       C2365   1.086       .  S
C737        C738   1.225       .  T
C739        C740   1.349       .  D
C739       H2373   1.086       .  S
C740        H742   1.087       .  S
H741       C2371   1.087       .  S
C743        C744   1.359       .  D
C743        H745   1.086       .  S
C744       H2378   1.086       .  S
H746       C2376   1.087       .  S
C747        C748   1.343       .  D
C747       H1565   1.087       .  S
C748       H2382   1.087       .  S
H749       C1563   1.087   1_565  S
H750       C2380   1.086       .  S
C751        C752   1.208       .  T
C753        C754   1.221       .  T
C755        C756   1.205       .  T
C756        C912   1.435       .  S
C757        C758   1.360       .  D
C757        H759   1.086       .  S
C758        H760   1.086       .  S
C761        C762   1.351       .  D
C761        H763   1.086       .  S
C762        H764   1.087       .  S
C765        C766   1.212       .  T
C767        C768   1.355       .  D
C767       H1585   1.086       .  S
C768        H770   1.087   1_565  S
H769       C1583   1.087       .  S
C771        C772   1.350       .  D
C771       H1589   1.087   1_545  S
C772        H774   1.086       .  S
H773       C1587   1.087       .  S
C775        C776   1.215       .  T
C776        C884   1.451       .  S
C777        C778   1.347       .  D
C777        H779   1.087       .  S
C778        H780   1.086       .  S
C781        C782   1.218       .  T
C783        C784   1.349       .  D
C783        H785   1.087       .  S
C784        H786   1.087       .  S
C787        C788   1.352       .  D
C787        H789   1.086       .  S
C788        H790   1.087       .  S
C791        C856   1.471       .  S
C791        C792   1.340   1_565  D
C791       H1609   1.087       .  S
C792        H794   1.087       .  S
H793       C1607   1.087       .  S
C795        C796   1.206       .  T
C797        C798   1.348       .  D
C797        H799   1.086       .  S
C798       H2432   1.087       .  S
H800       C2430   1.087   1_655  S
C801        C802   1.220       .  T
C803       C1643   1.495       .  S
C803        C804   1.353       .  D
C803        H805   1.087       .  S
C804       H2438   1.086       .  S
H806       C2436   1.087       .  S
C807        C808   1.356       .  D
C807       H2441   1.086       .  S
C808        H810   1.086       .  S
H809       C2439   1.087   1_455  S
C811        C812   1.351       .  D
C811        H813   1.087   1_665  S
C812       H3262   1.086       .  S
H814       C3260   1.086       .  S
C815        C816   1.210       .  T
O817       C2459   1.281       .  A
O818       Cu825   2.050       .  S
O818        C828   1.281       .  A
O819        C829   1.278       .  A
O820       Cu825   2.028       .  S
O820       C2462   1.279       .  A
O821        C830   1.277   1_455  A
O822       Cu826   2.033       .  S
O822       C2461   1.279   1_455  A
O823       C2460   1.287       .  A
O824       Cu826   2.042       .  S
O824        C827   1.281   1_455  A
Cu825     Cu1642   2.370       .  S
Cu826     Cu1641   2.367   1_455  S
C827       O2449   1.281       .  A
C827       C3251   1.495       .  S
C828       O2455   1.281       .  A
C828       C1624   1.496       .  S
C829       O2454   1.278       .  A
C829       C1632   1.447       .  S
C830       O2452   1.280       .  A
C830       C1627   1.482       .  S
O831       Cu839   2.071       .  S
O831        C841   1.286       .  A
O832       Cu839   2.076       .  S
O832        C842   1.286       .  A
O833       Cu839   2.034       .  S
O833        C843   1.278       .  A
O834       Cu839   2.037       .  S
O834        C844   1.279       .  A
O835       Cu840   2.046       .  S
O835       C2476   1.281       .  A
O836       Cu840   2.043       .  S
O836       C2475   1.280       .  A
O837       Cu840   2.042       .  S
O837       C2474   1.282       .  A
O838       Cu840   2.050       .  S
O838       C2473   1.282       .  A
Cu839     Cu2472   2.365       .  S
Cu840     Cu2471   2.366   1_455  S
C841       O2470   1.276       .  A
C841       C1623   1.502       .  S
C842       O2469   1.279       .  A
C842       C1620   1.507       .  S
C843       O2468   1.284       .  A
C843       C1617   1.465       .  S
C844       O2467   1.284       .  A
C844       C1613   1.500       .  S
O845       Cu853   2.016       .  S
O845        C855   1.277       .  A
O846       Cu853   2.014       .  S
O846        C856   1.279       .  A
O847       Cu853   2.047       .  S
O847        C857   1.282       .  A
O848        C858   1.284       .  A
O849        C858   1.277       .  A
O850       Cu854   2.031       .  S
O850        C857   1.280       .  A
O851       Cu854   2.007       .  S
O851        C856   1.276       .  A
O852       Cu854   2.009       .  S
O852        C855   1.276       .  A
Cu853      Cu854   2.372       .  S
C855       C1611   1.438       .  S
C857       C1600   1.496       .  S
C858       C1603   1.494       .  S
O859       Cu867   2.046       .  S
O859        C869   1.283       .  A
O860       Cu867   2.039       .  S
O860        C870   1.281       .  A
O861       Cu867   2.032       .  S
O861        C871   1.279       .  A
O862       Cu867   2.040       .  S
O862        C872   1.281       .  A
O863       Cu868   2.026       .  S
O863        C872   1.279       .  A
O864       Cu868   2.028       .  S
O864        C871   1.278       .  A
O865       Cu868   2.036       .  S
O865        C870   1.281       .  A
O866       Cu868   2.028       .  S
O866        C869   1.279       .  A
Cu867      Cu868   2.369       .  S
C869       C1604   1.496       .  S
C870       C1599   1.496       .  S
C871       C1597   1.451       .  S
C872       C1593   1.487       .  S
O873       Cu881   2.052       .  S
O874       Cu881   2.062       .  S
O875      Cu2513   2.058       .  S
O876       Cu881   2.008   1_455  S
O877       Cu882   2.045   1_455  S
O877        C886   1.283       .  A
O878      Cu2514   2.059       .  S
O878        C885   1.284       .  A
O879       Cu882   2.025       .  S
O879        C884   1.278       .  A
O880       Cu882   2.024       .  S
O880        C883   1.278       .  A
Cu881      O2507   2.009       .  S
Cu882      O2510   2.035       .  S
C883       C1628   1.483       .  S
C885       C1583   1.491       .  S
C886       C1587   1.495       .  S
O887      Cu2527   2.022       .  S
O887        C897   1.277       .  A
O888       Cu895   2.057       .  S
O888        C898   1.284       .  A
O889       Cu895   2.041       .  S
O889        C899   1.280       .  A
O890       Cu895   2.038       .  S
O890        C900   1.279       .  A
O891       Cu896   2.058       .  S
O891        C900   1.283       .  A
O892       Cu896   2.054       .  S
O892        C899   1.284       .  A
O893       Cu896   2.029       .  S
O893        C898   1.280       .  A
O894      Cu2528   2.062       .  S
O894        C897   1.285       .  A
Cu895      O2519   2.048       .  S
Cu895      Cu896   2.365       .  S
Cu896      O2526   2.043       .  S
C897       C1577   1.498       .  S
C898       C1573   1.503       .  S
C899       C1614   1.500       .  S
C900       C1582   1.467       .  S
O901       Cu909   2.015       .  S
O902       Cu909   2.014       .  S
O903       Cu909   2.043       .  S
O904       Cu909   2.051       .  S
O905       Cu910   2.029       .  S
O905        C914   1.279       .  A
O906       Cu910   2.019       .  S
O906        C913   1.278       .  A
O907       Cu910   2.011       .  S
O907        C912   1.276       .  A
O908       Cu910   2.011       .  S
O908        C911   1.278       .  A
C911       C1608   1.471       .  S
C913       C1588   1.493       .  S
C914       C1584   1.495       .  S
O915       Cu923   2.024       .  S
O915        C925   1.278       .  A
O916       Cu923   2.024       .  S
O916        C926   1.277       .  A
O917       Cu923   2.062       .  S
O917        C927   1.286       .  A
O918       Cu923   2.061       .  S
O918        C928   1.283       .  A
O919       Cu924   2.028       .  S
O919        C928   1.280       .  A
O920       Cu924   2.021       .  S
O920        C927   1.277       .  A
O921       Cu924   2.048       .  S
O921        C926   1.282       .  A
O922       Cu924   2.042       .  S
O922        C925   1.281       .  A
Cu923      Cu924   2.368       .  S
C925       C1594   1.489       .  S
C926       C1569   1.457       .  S
C927       C1578   1.499       .  S
C928       C1574   1.499       .  S
O929       Cu937   2.041       .  S
O929       C2571   1.280   1_455  A
O930       Cu937   2.032       .  S
O930       C2572   1.280       .  A
O931       C2573   1.281       .  A
O932       Cu937   2.024   1_565  S
O932       C2574   1.278       .  A
O933       Cu938   2.066   1_565  S
O933        C942   1.283       .  A
O934        C941   1.278       .  A
O935       Cu938   2.025       .  S
O935        C940   1.278       .  A
O936       Cu938   2.017       .  S
O936        C939   1.277       .  A
Cu937     Cu2570   2.369   1_455  S
Cu938     Cu2569   2.369       .  S
C939       O2561   1.279       .  A
C939       C1568   1.445       .  S
C940       O2562   1.280       .  A
C940       C1563   1.483       .  S
C941       O2563   1.282       .  A
C941       C1559   1.493       .  S
C942       O2564   1.281       .  A
C942       C1555   1.503       .  S
O943       Cu951   2.006       .  S
O943       C2585   1.276       .  A
O944       Cu951   2.011       .  S
O944       C2586   1.275       .  A
O945       Cu951   2.061       .  S
O945       C2587   1.285       .  A
O946       Cu951   2.053       .  S
O946       C2588   1.284       .  A
O947       Cu952   2.073       .  S
O947        C956   1.287       .  A
O948       Cu952   2.068       .  S
O948        C955   1.286       .  A
O949       Cu952   2.027       .  S
O949        C954   1.276       .  A
O950       Cu952   2.025       .  S
O950        C953   1.277       .  A
Cu951     Cu2584   2.368   1_455  S
Cu952     Cu2583   2.366       .  S
C953       O2575   1.285       .  A
C953       C1549   1.499       .  S
C954       O2576   1.286       .  A
C954       C1553   1.468       .  S
C955       O2577   1.273       .  A
C955       C1560   1.488       .  S
C956       O2578   1.278       .  A
C956       C1556   1.508       .  S
O957       Cu965   2.009       .  S
O957        C967   1.279       .  A
O958       Cu965   2.019       .  S
O958        C968   1.278       .  A
O959       Cu965   2.028   1_565  S
O959        C969   1.279       .  A
O960        C970   1.280       .  A
O961        C970   1.280       .  A
O962       Cu966   2.028   1_565  S
O962        C969   1.281       .  A
O963       Cu966   2.013       .  S
O963        C968   1.276       .  A
O964       Cu966   2.004       .  S
O964        C967   1.275       .  A
Cu965      Cu966   2.373       .  S
C967       C1543   1.470       .  S
C968       C1548   1.440       .  S
C969       C1535   1.488       .  S
C970       C1539   1.490       .  S
O971       Cu979   2.013       .  S
O971        C981   1.278       .  A
O972       Cu979   2.022       .  S
O972        C982   1.279       .  A
O973       Cu979   2.030       .  S
O973        C983   1.279       .  A
O974       Cu979   2.039       .  S
O974        C984   1.281       .  A
O975       Cu980   2.011       .  S
O975        C984   1.276       .  A
O976       Cu980   2.012       .  S
O976        C983   1.276       .  A
O977       Cu980   2.037       .  S
O977        C982   1.281       .  A
O978       Cu980   2.042       .  S
O978        C981   1.282       .  A
Cu979      Cu980   2.371       .  S
C981       C1536   1.490       .  S
C982       C1540   1.489       .  S
C983       C1534   1.444       .  S
C984       C1529   1.480       .  S
O985       Cu993   2.040       .  S
O985       C2627   1.281       .  A
O986       Cu993   2.047       .  S
O986       C2628   1.283       .  A
O987       Cu993   1.989   1_455  S
O987       C2629   1.271   1_545  A
O988       C2630   1.276       .  A
O989        C998   1.272       .  A
O990       Cu994   2.002   1_565  S
O990        C997   1.277       .  A
O991       Cu994   2.027       .  S
O991        C996   1.280       .  A
O992       Cu994   2.032       .  S
O992        C995   1.280       .  A
Cu993     Cu2626   2.376   1_545  S
Cu994     Cu2625   2.373       .  S
C995       O2617   1.275       .  A
C995       C1567   1.444       .  S
C996       O2618   1.278   1_545  A
C996       C1520   1.485       .  S
C997       O2619   1.272       .  A
C997       C1500   1.459       .  S
C998       O2620   1.278       .  A
C998       C1510   1.451       .  S
O999      Cu1007   2.051       .  S
O999       C2641   1.283       .  A
O1000     Cu1007   2.056       .  S
O1000      C2642   1.284       .  A
O1001     Cu1007   1.954       .  S
O1001      C2643   1.272       .  A
O1002     Cu1007   1.967       .  S
O1002      C2644   1.266       .  A
O1003     Cu1008   1.980       .  S
O1003      C1012   1.274       .  A
O1004     Cu1008   1.999       .  S
O1004      C1011   1.272       .  A
O1005     Cu1008   2.074       .  S
O1005      C1010   1.286       .  A
O1006     Cu1008   2.077       .  S
O1006      C1009   1.287       .  A
Cu1007    Cu2640   2.373       .  S
Cu1008    Cu2639   2.372       .  S
C1009      O2631   1.276       .  A
C1009      C1554   1.467       .  S
C1010      O2632   1.278       .  A
C1010      C1490   1.506       .  S
C1011      O2633   1.276       .  A
C1011      C1513   1.451       .  S
C1012      O2634   1.276       .  A
C1012      C1503   1.456       .  S
O1013     Cu1021   2.017       .  S
O1013      C1023   1.277   1_565  A
O1014     Cu1021   2.013       .  S
O1014      C1024   1.279   1_565  A
O1015     Cu1021   1.985       .  S
O1015      C1025   1.277       .  A
O1016      C1026   1.273       .  A
O1017      C1026   1.277       .  A
O1018     Cu1022   1.995   1_565  S
O1018      C1025   1.272       .  A
O1019     Cu1022   2.014       .  S
O1019      C1024   1.278       .  A
O1020     Cu1022   2.016       .  S
O1020      C1023   1.277       .  A
Cu1021    Cu1022   2.381   1_565  S
C1023      C1547   1.440       .  S
C1024      C1480   1.476       .  S
C1025      C1463   1.450       .  S
C1026      C1470   1.451       .  S
O1027     Cu1035   1.999       .  S
O1027      C1037   1.274       .  A
O1028     Cu1035   1.993       .  S
O1028      C1038   1.278       .  A
O1029     Cu1035   2.022       .  S
O1029      C1039   1.280       .  A
O1030     Cu1035   2.018       .  S
O1030      C1040   1.277       .  A
O1031     Cu1036   2.026       .  S
O1031      C1040   1.279       .  A
O1032     Cu1036   2.025       .  S
O1032      C1039   1.281       .  A
O1033     Cu1036   1.986       .  S
O1033      C1038   1.271       .  A
O1034     Cu1036   1.982       .  S
O1034      C1037   1.276       .  A
Cu1035    Cu1036   2.380       .  S
C1037      C1460   1.449       .  S
C1038      C1473   1.449       .  S
C1039      C1450   1.487       .  S
C1040      C1533   1.444       .  S
O1041     Cu1049   2.008       .  S
O1042     Cu1049   2.018       .  S
O1043     Cu2681   2.000   1_455  S
O1044     Cu1049   1.985       .  S
O1045     Cu1050   2.002       .  S
O1045      C1054   1.273       .  A
O1046     Cu2682   2.002       .  S
O1046      C1053   1.280       .  A
O1047     Cu1050   2.055       .  S
O1047      C1052   1.283       .  A
O1048     Cu1050   2.052       .  S
O1048      C1051   1.283       .  A
Cu1049     O2675   1.996       .  S
Cu1050     O2678   1.977       .  S
C1051      C1438   1.498       .  S
C1052      C1448   1.456       .  S
C1053      C1428   1.455       .  S
C1054      C1418   1.452       .  S
O1055     Cu1063   2.031       .  S
O1055      C1065   1.278       .  A
O1056     Cu1063   2.025       .  S
O1056      C1066   1.280       .  A
O1057     Cu1063   1.983       .  S
O1057      C1067   1.277       .  A
O1058     Cu2695   1.971       .  S
O1058      C1068   1.274       .  A
O1059     Cu2696   1.990   1_455  S
O1059      C1068   1.277       .  A
O1060     Cu1064   1.993       .  S
O1060      C1067   1.271       .  A
O1061     Cu1064   2.070       .  S
O1061      C1066   1.285       .  A
O1062     Cu1064   2.077       .  S
O1062      C1065   1.286       .  A
Cu1063     O2690   1.986       .  S
Cu1063    Cu1064   2.372       .  S
Cu1064     O2691   1.974       .  S
C1065      C1415   1.471       .  S
C1066      C1406   1.507       .  S
C1067      C1386   1.450       .  S
C1068      C1396   1.463       .  S
O1069     Cu1077   2.018       .  S
O1070     Cu1077   2.007       .  S
O1071     Cu1077   1.992       .  S
O1072     Cu1077   1.976       .  S
O1073     Cu1078   1.996   1_565  S
O1073      C1082   1.273       .  A
O1074     Cu1078   1.985       .  S
O1074      C1081   1.279       .  A
O1075     Cu1078   2.003       .  S
O1075      C1080   1.278       .  A
O1076     Cu1078   2.001       .  S
O1076      C1079   1.275       .  A
C1079      C1384   1.435       .  S
C1080      C1377   1.484       .  S
C1081      C1431   1.457       .  S
C1082      C1421   1.451       .  S
O1083     Cu1091   1.983       .  S
O1083      C1093   1.276       .  A
O1084     Cu1091   1.983       .  S
O1084      C1094   1.276       .  A
O1085     Cu1091   2.002       .  S
O1085      C1095   1.278       .  A
O1086     Cu1091   2.004       .  S
O1086      C1096   1.274       .  A
O1087     Cu1092   2.056       .  S
O1087      C1096   1.284       .  A
O1088     Cu1092   2.059       .  S
O1088      C1095   1.283       .  A
O1089     Cu1092   1.996       .  S
O1089      C1094   1.271       .  A
O1090     Cu1092   1.980       .  S
O1090      C1093   1.274       .  A
Cu1091    Cu1092   2.373       .  S
C1093      C1399   1.462       .  S
C1094      C1389   1.450       .  S
C1095      C1362   1.496       .  S
C1096      C1372   1.452       .  S
O1097     Cu1105   2.015       .  S
O1098     Cu1105   2.013       .  S
O1099     Cu2737   2.014       .  S
O1100     Cu1105   2.029       .  S
O1101     Cu1106   2.064       .  S
O1101      C1110   1.285   1_565  A
O1102     Cu2738   2.014   1_455  S
O1102      C1109   1.278       .  A
O1103     Cu1106   2.012       .  S
O1103      C1108   1.277   1_565  A
O1104     Cu1106   2.015       .  S
O1104      C1107   1.275       .  A
Cu1105     O2731   2.022       .  S
Cu1106     O2734   2.058       .  S
C1107      C1447   1.456       .  S
C1108      C1564   1.485       .  S
C1109      C1357   1.489       .  S
C1110      C1353   1.487       .  S
O1111     Cu1119   2.053       .  S
O1111      C1121   1.283       .  A
O1112     Cu1119   2.065       .  S
O1112      C1122   1.284       .  A
O1113     Cu1119   2.013       .  S
O1113      C1123   1.278       .  A
O1114     Cu2751   2.057       .  S
O1114      C1124   1.285       .  A
O1115     Cu2752   2.022   1_455  S
O1115      C1124   1.277       .  A
O1116     Cu1120   2.064       .  S
O1116      C1123   1.285       .  A
O1117     Cu1120   2.044       .  S
O1117      C1122   1.279       .  A
O1118     Cu1120   2.039       .  S
O1118      C1121   1.279       .  A
Cu1119     O2746   2.022       .  S
Cu1119    Cu1120   2.365       .  S
Cu1120     O2747   2.050       .  S
C1121      C1550   1.497       .  S
C1122      C1416   1.472       .  S
C1123      C1345   1.503       .  S
C1124      C1349   1.496       .  S
O1125     Cu1133   2.020       .  S
O1125      C1135   1.279   1_565  A
O1126     Cu1133   2.023   1_545  S
O1126      C1136   1.279       .  A
O1127     Cu1133   2.026       .  S
O1127      C1137   1.278   1_565  A
O1128     Cu1133   2.018   1_545  S
O1128      C1138   1.279       .  A
O1129     Cu1134   2.043       .  S
O1130     Cu1134   2.051       .  S
O1131     Cu1134   2.002       .  S
O1132     Cu1134   2.009       .  S
C1135      C1544   1.466       .  S
C1136      C1383   1.435       .  S
C1137      C1354   1.492   1_545  S
C1138      C1358   1.494       .  S
O1139     Cu1147   2.015       .  S
O1139      C1149   1.275       .  A
O1140     Cu1147   2.011       .  S
O1140      C1150   1.277       .  A
O1141     Cu1147   2.067       .  S
O1141      C1151   1.286       .  A
O1142     Cu1147   2.068       .  S
O1142      C1152   1.284       .  A
O1143     Cu1148   2.014       .  S
O1143      C1152   1.278       .  A
O1144     Cu1148   2.008       .  S
O1144      C1151   1.276       .  A
O1145     Cu1148   2.038       .  S
O1145      C1150   1.281       .  A
O1146     Cu1148   2.046       .  S
O1146      C1149   1.282       .  A
Cu1147    Cu1148   2.369       .  S
C1149      C1371   1.452       .  S
C1150      C1530   1.485       .  S
C1151      C1350   1.497       .  S
C1152      C1346   1.495       .  S
O1153     Cu1161   2.002       .  S
O1153      C1163   1.280       .  A
O1154     Cu2793   2.002       .  S
O1154      C1164   1.273       .  A
O1155     Cu1161   2.028       .  S
O1155      C1165   1.277       .  A
O1156     Cu2793   2.058       .  S
O1156      C1166   1.284       .  A
O1157     Cu2794   2.018       .  S
O1158     Cu1162   2.028       .  S
O1159     Cu2794   1.975       .  S
O1160     Cu1162   1.994       .  S
Cu1161     O2786   1.998   1_455  S
Cu1161     O2788   2.028       .  S
Cu1162     O2789   2.027       .  S
Cu1162     O2791   1.987       .  S
C1163      C1339   1.454       .  S
C1164      C1326   1.452       .  S
C1165      C1591   1.465       .  S
C1166      C1441   1.498       .  S
O1167     Cu1175   2.023       .  S
O1167      C1177   1.280       .  A
O1168     Cu1175   2.024       .  S
O1168      C1178   1.277       .  A
O1169     Cu1175   1.981       .  S
O1169      C1179   1.276       .  A
O1170     Cu2807   1.981       .  S
O1170      C1180   1.275       .  A
O1171     Cu2808   1.986   1_455  S
O1171      C1180   1.277       .  A
O1172     Cu1176   2.003       .  S
O1172      C1179   1.272       .  A
O1173     Cu1176   2.072       .  S
O1173      C1178   1.286       .  A
O1174     Cu1176   2.069       .  S
O1174      C1177   1.285       .  A
Cu1175     O2802   1.984       .  S
Cu1175    Cu1176   2.372       .  S
Cu1176     O2803   1.985       .  S
C1177      C1409   1.507       .  S
C1178      C1581   1.466       .  S
C1179      C1306   1.453       .  S
C1180      C1316   1.464       .  S
O1181     Cu1189   2.007       .  S
O1182     Cu1189   1.999       .  S
O1183     Cu1189   1.998       .  S
O1184     Cu1189   2.009       .  S
O1185     Cu1190   1.979       .  S
O1185      C1194   1.278       .  A
O1186     Cu1190   1.995   1_565  S
O1186      C1193   1.272       .  A
O1187     Cu1190   2.011       .  S
O1187      C1192   1.279       .  A
O1188     Cu1190   2.008       .  S
O1188      C1191   1.276       .  A
C1191      C1571   1.434       .  S
C1192      C1374   1.484       .  S
C1193      C1329   1.453       .  S
C1194      C1336   1.455       .  S
O1195     Cu1203   1.995       .  S
O1195      C1205   1.272       .  A
O1196     Cu1203   1.973       .  S
O1196      C1206   1.274       .  A
O1197     Cu1203   2.063       .  S
O1197      C1207   1.285       .  A
O1198     Cu1203   2.062       .  S
O1198      C1208   1.284       .  A
O1199     Cu1204   2.001       .  S
O1199      C1208   1.277       .  A
O1200     Cu1204   2.008       .  S
O1200      C1207   1.274       .  A
O1201     Cu1204   1.994       .  S
O1201      C1206   1.277       .  A
O1202     Cu1204   1.992       .  S
O1202      C1205   1.278       .  A
Cu1203    Cu1204   2.374       .  S
C1205      C1309   1.453       .  S
C1206      C1319   1.464       .  S
C1207      C1570   1.456       .  S
C1208      C1365   1.497       .  S
O1209     Cu1217   2.036       .  S
O1209      C2851   1.280       .  A
O1210     Cu1217   2.047       .  S
O1210      C2852   1.283       .  A
O1211      C2853   1.276       .  A
O1212     Cu1217   1.987   1_455  S
O1212      C2854   1.271   1_545  A
O1213     Cu1218   2.011   1_565  S
O1213      C1222   1.278       .  A
O1214      C1221   1.274       .  A
O1215     Cu1218   2.026       .  S
O1215      C1220   1.280   1_545  A
O1216     Cu1218   2.033       .  S
O1216      C1219   1.280   1_545  A
Cu1217    Cu2850   2.376   1_545  S
Cu1218    Cu2849   2.372   1_545  S
C1219      O2841   1.276       .  A
C1219      C1631   1.447       .  S
C1220      O2842   1.278       .  A
C1220      C1523   1.486       .  S
C1221      O2843   1.276       .  A
C1221      C1296   1.454       .  S
C1222      O2844   1.272       .  A
C1222      C1286   1.460       .  S
O1223     Cu1231   2.009       .  S
O1223      C1233   1.274       .  A
O1224     Cu1231   1.989       .  S
O1224      C1234   1.275       .  A
O1225     Cu1231   2.072       .  S
O1225      C1235   1.285       .  A
O1226     Cu1231   2.076       .  S
O1226      C1236   1.287       .  A
O1227     Cu1232   2.058       .  S
O1227      C2868   1.284       .  A
O1228     Cu1232   2.055       .  S
O1228      C2867   1.284       .  A
O1229     Cu1232   2.000       .  S
O1229      C2866   1.273       .  A
O1230     Cu1232   1.977       .  S
O1230      C2865   1.276       .  A
Cu1231    Cu2864   2.373       .  S
Cu1232    Cu2863   2.374       .  S
C1233      O2862   1.276       .  A
C1233      C1299   1.455       .  S
C1234      O2861   1.275       .  A
C1234      C1289   1.457       .  S
C1235      O2860   1.278       .  A
C1235      C1493   1.505       .  S
C1236      O2859   1.275       .  A
C1236      C1618   1.464       .  S
O1237     Cu1245   2.019       .  S
O1237      C1247   1.280       .  A
O1238     Cu1245   2.015       .  S
O1238      C1248   1.277       .  A
O1239     Cu1245   1.990   1_565  S
O1239      C1249   1.272       .  A
O1240      C1250   1.277       .  A
O1241      C1250   1.272       .  A
O1242     Cu1246   1.994       .  S
O1242      C1249   1.278       .  A
O1243     Cu1246   2.012       .  S
O1243      C1248   1.277   1_565  A
O1244     Cu1246   2.007       .  S
O1244      C1247   1.278   1_565  A
Cu1245    Cu1246   2.381   1_545  S
C1247      C1483   1.477       .  S
C1248      C1612   1.438       .  S
C1249      C1266   1.451       .  S
C1250      C1276   1.446       .  S
O1251     Cu1259   2.025       .  S
O1251      C1261   1.278       .  A
O1252     Cu1259   2.024       .  S
O1252      C1262   1.280       .  A
O1253     Cu1259   2.000       .  S
O1253      C1263   1.274       .  A
O1254     Cu1259   1.993       .  S
O1254      C1264   1.278       .  A
O1255     Cu1260   1.981       .  S
O1255      C1264   1.270       .  A
O1256     Cu1260   1.979       .  S
O1256      C1263   1.276       .  A
O1257     Cu1260   2.028       .  S
O1257      C1262   1.280       .  A
O1258     Cu1260   2.032       .  S
O1258      C1261   1.280       .  A
Cu1259    Cu1260   2.379       .  S
C1261      C1598   1.451       .  S
C1262      C1453   1.485       .  S
C1263      C1269   1.449       .  S
C1264      C1279   1.446       .  S
C1265      C1266   1.400       .  A
C1265      C1270   1.394       .  A
C1265      H1271   1.084       .  S
C1266      C1267   1.399       .  A
C1267      C1268   1.391       .  A
C1267      H1272   1.084       .  S
C1268      C1269   1.400       .  A
C1268      H1273   1.084       .  S
C1269      C1270   1.400       .  A
C1270      H1274   1.084       .  S
C1275      C1276   1.400       .  A
C1275      C1280   1.391       .  A
C1275      H1281   1.084       .  S
C1276      C1277   1.400       .  A
C1277      C1278   1.391       .  A
C1277      H1282   1.084       .  S
C1278      C1279   1.399       .  A
C1278      H1283   1.084       .  S
C1279      C1280   1.399       .  A
C1280      H1284   1.084       .  S
C1285      C1286   1.403       .  A
C1285      C1290   1.382       .  A
C1285      H1291   1.082       .  S
C1286      C2919   1.402       .  A
C1287      C2918   1.401       .  A
C1287      C1288   1.393       .  A
C1287      H1292   1.084       .  S
C1288      C2921   1.399       .  A
C1288      H1293   1.084       .  S
C1289      C2920   1.403       .  A
C1289      C1290   1.398       .  A
C1290      H1294   1.084       .  S
C1295      C2928   1.400       .  A
C1295      C1300   1.384       .  A
C1295      H1301   1.081       .  S
C1296      C2927   1.399       .  A
C1296      C1297   1.403       .  A
C1297      C1298   1.395       .  A
C1297      H1302   1.084       .  S
C1298      C1299   1.399       .  A
C1298      H1303   1.084       .  S
C1299      C2932   1.402       .  A
C1300      C2931   1.399       .  A
C1300      H1304   1.080       .  S
C1305      C1306   1.400       .  A
C1305      C1310   1.392       .  A
C1305      H1311   1.084       .  S
C1306      C1307   1.401       .  A
C1307      C1308   1.395       .  A
C1307      H1312   1.084       .  S
C1308      C1309   1.400       .  A
C1308      H1313   1.084       .  S
C1309      C1310   1.400       .  A
C1310      H1314   1.084       .  S
C1315      C1316   1.405       .  A
C1315      C1320   1.392       .  A
C1315      H1321   1.083       .  S
C1316      C1317   1.401       .  A
C1317      C1318   1.388       .  A
C1317      H1322   1.083       .  S
C1318      C1319   1.404       .  A
C1318      H1323   1.083       .  S
C1319      C1320   1.402       .  A
C1320      H1324   1.083       .  S
C1325      C1330   1.391       .  A
C1325      H1331   1.084       .  S
C1326      C1327   1.399       .  A
C1327      C1328   1.394       .  A
C1327      H1332   1.084       .  S
C1328      C1329   1.402       .  A
C1328      H1333   1.084       .  S
C1330      H1334   1.084       .  S
C1335      C1336   1.403       .  A
C1335      C1340   1.395       .  A
C1335      H1341   1.084       .  S
C1337      C1338   1.394       .  A
C1337      H1342   1.084       .  S
C1338      H1343   1.084       .  S
C1339      C1340   1.399       .  A
C1340      H1344   1.084       .  S
C1345      C1346   1.355       .  D
C1345      H1347   1.086       .  S
C1346      H1348   1.087       .  S
C1349      C1350   1.359       .  D
C1349      H1351   1.086       .  S
C1350      H1352   1.086       .  S
C1353      C1354   1.345   1_545  D
C1354      H1356   1.086       .  S
C1357      C1358   1.351       .  D
C1357      H1359   1.087       .  S
C1361      C1362   1.406       .  A
C1361      C1366   1.396   1_554  A
C1361      H1367   1.083       .  S
C1362      C1363   1.410       .  A
C1363      C1364   1.414   1_554  A
C1363      H1368   1.083       .  S
C1364      C1365   1.410       .  A
C1364      H1369   1.083       .  S
C1365      C1366   1.406       .  A
C1366      H1370   1.083       .  S
C1371      C1372   1.216       .  T
C1373      C1378   1.396   1_556  A
C1373      H1379   1.083       .  S
C1374      C1375   1.405       .  A
C1375      C1376   1.397   1_556  A
C1375      H1380   1.083       .  S
C1376      C1377   1.406       .  A
C1376      H1381   1.083       .  S
C1378      H1382   1.083       .  S
C1383      C1384   1.206       .  T
C1385      C1386   1.401       .  A
C1385      C1390   1.393       .  A
C1385      H1391   1.084       .  S
C1386      C1387   1.399       .  A
C1387      C1388   1.392       .  A
C1387      H1392   1.084       .  S
C1388      C1389   1.400       .  A
C1388      H1393   1.084       .  S
C1389      C1390   1.400       .  A
C1390      H1394   1.084       .  S
C1395      C1396   1.403       .  A
C1395      C1400   1.392       .  A
C1395      H1401   1.083       .  S
C1396      C1397   1.404       .  A
C1397      C1398   1.387       .  A
C1397      H1402   1.083       .  S
C1398      C1399   1.401       .  A
C1398      H1403   1.083       .  S
C1399      C1400   1.404       .  A
C1400      H1404   1.083       .  S
C1405      C1406   1.408       .  A
C1405      C1410   1.402   1_554  A
C1405      H1411   1.083       .  S
C1406      C3039   1.412       .  A
C1407      C3038   1.408   1_655  A
C1407      C1408   1.398   1_554  A
C1407      H1412   1.083       .  S
C1408      C3041   1.407   1_655  A
C1408      H1413   1.083       .  S
C1409      C3040   1.412       .  A
C1409      C1410   1.408       .  A
C1410      H1414   1.083       .  S
C1415      C1416   1.227       .  T
C1417      C1418   1.402       .  A
C1417      C1422   1.393       .  A
C1417      H1423   1.084       .  S
C1419      C1420   1.398       .  A
C1419      H1424   1.083       .  S
C1420      H1425   1.083       .  S
C1421      C1422   1.398       .  A
C1422      H1426   1.084       .  S
C1427      C1432   1.394       .  A
C1427      H1433   1.084       .  S
C1428      C1429   1.402       .  A
C1429      C1430   1.395       .  A
C1429      H1434   1.084       .  S
C1430      C1431   1.401       .  A
C1430      H1435   1.084       .  S
C1432      H1436   1.084       .  S
C1437      C2254   1.408       .  A
C1437      C1442   1.404   1_554  A
C1437      H1443   1.083       .  S
C1438      C2253   1.406       .  A
C1438      C1439   1.410       .  A
C1439      C1440   1.412   1_554  A
C1439      H1444   1.083       .  S
C1440      C1441   1.410       .  A
C1440      H1445   1.083       .  S
C1441      C2258   1.408       .  A
C1442      C2257   1.408       .  A
C1442      H1446   1.083       .  S
C1447      C1448   1.219       .  T
C1449      C1450   1.407       .  A
C1449      C1454   1.403       .  A
C1449      H1455   1.082       .  S
C1450      C1451   1.406       .  A
C1451      C1452   1.403       .  A
C1451      H1456   1.083       .  S
C1452      C1453   1.405       .  A
C1452      H1457   1.083       .  S
C1453      C1454   1.405       .  A
C1454      H1458   1.083       .  S
C1459      C1460   1.399       .  A
C1459      C1464   1.393       .  A
C1459      H1465   1.084       .  S
C1460      C1461   1.400       .  A
C1461      C1462   1.392       .  A
C1461      H1466   1.084       .  S
C1462      C1463   1.400       .  A
C1462      H1467   1.084       .  S
C1463      C1464   1.401       .  A
C1464      H1468   1.084       .  S
C1469      C1470   1.401       .  A
C1469      C1474   1.394       .  A
C1469      H1475   1.084       .  S
C1470      C1471   1.401       .  A
C1471      C1472   1.392       .  A
C1471      H1476   1.084       .  S
C1472      C1473   1.399       .  A
C1472      H1477   1.084       .  S
C1473      C1474   1.400       .  A
C1474      H1478   1.084       .  S
C1479      C1480   1.404       .  A
C1479      C1484   1.400       .  A
C1479      H1485   1.083       .  S
C1481      C1482   1.401       .  A
C1481      H1486   1.083       .  S
C1482      H1487   1.083       .  S
C1483      C1484   1.405       .  A
C1484      H1488   1.083       .  S
C1489      C3122   1.410       .  A
C1489      C1494   1.413       .  A
C1489      H1495   1.082       .  S
C1490      C3121   1.407       .  A
C1490      C1491   1.413       .  A
C1491      C1492   1.419       .  A
C1491      H1496   1.083       .  S
C1492      C1493   1.413       .  A
C1492      H1497   1.082       .  S
C1493      C3126   1.407       .  A
C1494      C3125   1.411       .  A
C1494      H1498   1.082       .  S
C1499      C3132   1.403       .  A
C1499      C1504   1.393       .  A
C1499      H1505   1.084       .  S
C1500      C3131   1.401       .  A
C1500      C1501   1.402       .  A
C1501      C1502   1.394       .  A
C1501      H1506   1.083       .  S
C1502      C1503   1.404       .  A
C1502      H1507   1.083       .  S
C1503      C3136   1.399       .  A
C1504      C3135   1.397       .  A
C1504      H1508   1.083       .  S
C1509      C3142   1.400       .  A
C1509      C1514   1.383       .  A
C1509      H1515   1.083       .  S
C1510      C3141   1.398       .  A
C1510      C1511   1.402       .  A
C1511      C1512   1.394       .  A
C1511      H1516   1.084       .  S
C1512      C1513   1.398       .  A
C1512      H1517   1.084       .  S
C1513      C3146   1.402       .  A
C1514      C3145   1.402       .  A
C1514      H1518   1.083       .  S
C1519      C1524   1.401       .  A
C1519      H1525   1.083       .  S
C1520      C3153   1.406   1_545  A
C1521      C3152   1.411       .  A
C1521      C1522   1.411       .  A
C1521      H1526   1.083       .  S
C1522      C3155   1.411       .  A
C1522      H1527   1.083       .  S
C1523      C3154   1.405       .  A
C1524      H1528   1.083       .  S
C1529      C1530   1.345       .  D
C1529      H1531   1.087       .  S
C1530      H1532   1.086       .  S
C1533      C1534   1.211       .  T
C1535      C1536   1.352       .  D
C1535      H1537   1.087       .  S
C1536      H1538   1.086       .  S
C1539      C1540   1.349       .  D
C1539      H1541   1.086       .  S
C1540      H1542   1.087       .  S
C1543      C1544   1.337       .  D
C1544      H1546   1.087       .  S
C1547      C1548   1.209       .  T
C1549      C1550   1.356       .  D
C1549      H3183   1.086       .  S
C1550      H1552   1.086       .  S
H1551      C3181   1.087       .  S
C1553      C1554   1.225       .  T
C1555      C1556   1.359       .  D
C1555      H3189   1.086       .  S
C1556      H1558   1.086       .  S
H1557      C3187   1.086       .  S
C1559      C1560   1.345       .  D
C1559      H1561   1.086       .  S
C1560      H3194   1.087       .  S
H1562      C3192   1.086       .  S
C1563      C1564   1.348       .  D
C1564      H3198   1.086       .  S
H1566      C3196   1.086   1_565  S
C1567      C1568   1.211       .  T
C1569      C1570   1.219       .  T
C1571      C1572   1.206       .  T
C1573      C1574   1.355       .  D
C1573      H1575   1.086       .  S
C1574      H1576   1.087       .  S
C1577      C1578   1.359       .  D
C1577      H1579   1.086       .  S
C1578      H1580   1.086       .  S
C1581      C1582   1.224       .  T
C1583      C1584   1.348       .  D
C1584      H1586   1.087       .  S
C1587      C1588   1.349       .  D
C1588      H1590   1.087       .  S
C1591      C1592   1.224       .  T
C1593      C1594   1.348       .  D
C1593      H1595   1.087       .  S
C1594      H1596   1.086       .  S
C1597      C1598   1.215       .  T
C1599      C1600   1.352       .  D
C1599      H1601   1.087       .  S
C1600      H1602   1.087       .  S
C1603      C1604   1.349       .  D
C1603      H1605   1.087       .  S
C1604      H1606   1.087       .  S
C1607      C1608   1.340       .  D
C1608      H1610   1.087       .  S
C1611      C1612   1.207   1_565  T
C1613      C1614   1.355       .  D
C1613      H1615   1.086       .  S
C1614      H3248   1.086       .  S
H1616      C3246   1.086       .  S
C1617      C1618   1.224       .  T
C1619      C2459   1.509       .  S
C1619      C1620   1.354       .  D
C1619      H1621   1.086       .  S
C1620      H3254   1.087       .  S
H1622      C3252   1.087       .  S
C1623      C1624   1.357       .  D
C1623      H3257   1.086       .  S
C1624      H1626   1.087       .  S
H1625      C3255   1.086       .  S
C1627      C1628   1.348       .  D
C1627      H1629   1.086       .  S
C1628      H2446   1.087   1_655  S
H1630      C2444   1.086   1_545  S
C1631      C1632   1.213       .  T
O1633     Cu2457   2.015       .  S
O1634     Cu1641   2.041   1_545  S
O1634      C1644   1.281       .  A
O1635     Cu2457   2.037       .  S
O1635      C1645   1.281   1_655  A
O1636     Cu1641   2.042       .  S
O1637     Cu2458   2.029       .  S
O1637      C1646   1.279       .  A
O1638     Cu1642   2.006       .  S
O1639     Cu2458   2.068   1_545  S
O1640     Cu1642   2.043       .  S
O1640      C1643   1.281       .  A
Cu1641     O2449   2.035       .  S
Cu1641     O2451   2.037       .  S
Cu1642     O2453   2.007       .  S
Cu1642     O2455   2.034       .  S
C1644      C2440   1.496       .  S
C1645      C2448   1.446       .  S
C1646      C2443   1.485       .  S
O1647     Cu1655   2.066       .  S
O1647      C1657   1.285       .  A
O1648     Cu1655   2.060       .  S
O1648      C1658   1.285   1_655  A
O1649     Cu1655   2.017       .  S
O1649      C1659   1.276       .  A
O1650     Cu1655   2.003       .  S
O1650      C1660   1.277   1_655  A
O1651     Cu1656   2.019       .  S
O1652     Cu1656   2.026       .  S
O1653     Cu1656   2.041       .  S
O1654     Cu1656   2.060       .  S
C1657      C2439   1.490       .  S
C1658      C2436   1.496       .  S
C1659      C2433   1.450       .  S
C1660      C2429   1.477       .  S
O1661     Cu1669   2.026       .  S
O1661      C1671   1.276       .  A
O1662     Cu1669   2.010       .  S
O1662      C1672   1.276       .  A
O1663     Cu1669   2.096       .  S
O1663      C1673   1.288       .  A
O1664     Cu2485   2.045   1_545  S
O1664      C1674   1.281       .  A
O1665     Cu2486   2.054       .  S
O1665      C1674   1.284       .  A
O1666     Cu1670   2.000       .  S
O1666      C1673   1.275       .  A
O1667     Cu1670   2.053       .  S
O1667      C1672   1.283       .  A
O1668     Cu1670   2.061       .  S
O1668      C1671   1.284       .  A
Cu1669     O2480   2.092       .  S
Cu1669    Cu1670   2.364       .  S
Cu1670     O2481   2.018       .  S
C1671      C2427   1.462       .  S
C1672      C3239   1.491       .  S
C1673      C2416   1.502       .  S
C1674      C2419   1.504       .  S
O1675     Cu1683   2.047       .  S
O1675      C1685   1.281       .  A
O1676     Cu1683   2.038       .  S
O1676      C1686   1.282       .  A
O1677     Cu1683   2.045       .  S
O1677      C1687   1.281       .  A
O1678     Cu1683   2.049       .  S
O1678      C1688   1.282       .  A
O1679     Cu1684   2.023       .  S
O1679      C1688   1.279       .  A
O1680     Cu1684   2.021       .  S
O1680      C1687   1.277       .  A
O1681     Cu1684   2.061       .  S
O1681      C1686   1.283       .  A
O1682     Cu1684   2.049       .  S
O1682      C1685   1.283       .  A
Cu1683    Cu1684   2.366       .  S
C1685      C2420   1.503       .  S
C1686      C2415   1.509       .  S
C1687      C2413   1.454       .  S
C1688      C2409   1.495       .  S
O1689     Cu1697   2.026       .  S
O1689      C2515   1.279       .  A
O1690     Cu1697   2.026       .  S
O1690      C2516   1.279       .  A
O1691      C2517   1.279       .  A
O1692     Cu1697   2.018       .  S
O1692      C2518   1.278       .  A
O1693     Cu1698   2.034       .  S
O1693      C1702   1.280       .  A
O1694      C1701   1.288       .  A
O1695     Cu1698   2.046       .  S
O1695      C1700   1.282       .  A
O1696     Cu1698   2.040   1_545  S
O1696      C1699   1.281   1_545  A
Cu1697    Cu2514   2.371       .  S
Cu1698    Cu2513   2.367       .  S
C1699      O2505   1.278       .  A
C1699      C2444   1.487       .  S
C1700      O2506   1.277       .  A
C1700      C3224   1.457       .  S
C1701      O2507   1.276   1_545  A
C1701      C2399   1.504   1_545  S
C1702      O2508   1.283       .  A
C1702      C2403   1.505       .  S
O1703      C1713   1.284       .  A
O1704     Cu1711   2.058   1_655  S
O1704      C1714   1.283       .  A
O1705     Cu1711   2.025       .  S
O1705      C1715   1.279       .  A
O1706     Cu1711   2.020       .  S
O1706      C1716   1.278       .  A
O1707     Cu1712   2.007       .  S
O1707      C1716   1.276       .  A
O1708     Cu1712   2.007       .  S
O1708      C1715   1.277       .  A
O1709     Cu1712   2.029   1_655  S
O1709      C1714   1.280       .  A
O1710      C1713   1.281       .  A
Cu1711    Cu1712   2.371       .  S
C1713      C2393   1.504       .  S
C1714      C2389   1.499       .  S
C1715      C2430   1.475       .  S
C1716      C2398   1.438       .  S
O1717     Cu1725   2.043       .  S
O1717      C2543   1.281       .  A
O1718     Cu1725   2.040       .  S
O1718      C2544   1.280       .  A
O1719     Cu1725   2.045       .  S
O1719      C2545   1.282       .  A
O1720     Cu1725   2.053       .  S
O1720      C2546   1.283       .  A
O1721     Cu1726   2.036       .  S
O1721      C1730   1.279       .  A
O1722     Cu1726   2.023       .  S
O1722      C1729   1.279   1_545  A
O1723     Cu1726   2.024       .  S
O1723      C1728   1.278   1_545  A
O1724     Cu1726   2.028       .  S
O1724      C1727   1.279       .  A
Cu1725    Cu2542   2.369       .  S
Cu1726    Cu2541   2.366   1_545  S
C1727      O2533   1.281   1_545  A
C1727      C2424   1.492       .  S
C1728      O2534   1.278       .  A
C1728      C3204   1.447       .  S
C1729      O2535   1.284       .  A
C1729      C2404   1.500       .  S
C1730      O2536   1.285   1_545  A
C1730      C2400   1.506       .  S
O1731     Cu1739   2.016       .  S
O1731      C1741   1.277       .  A
O1732     Cu1739   2.025       .  S
O1732      C1742   1.276       .  A
O1733     Cu1739   2.062       .  S
O1733      C1743   1.285       .  A
O1734     Cu1739   2.049       .  S
O1734      C1744   1.283       .  A
O1735     Cu1740   2.038       .  S
O1735      C1744   1.281       .  A
O1736     Cu1740   2.037       .  S
O1736      C1743   1.280       .  A
O1737     Cu1740   2.065       .  S
O1737      C1742   1.285       .  A
O1738     Cu1740   2.058       .  S
O1738      C1741   1.283       .  A
Cu1739    Cu1740   2.366       .  S
C1741      C2410   1.489       .  S
C1742      C2385   1.464       .  S
C1743      C2394   1.507       .  S
C1744      C2390   1.502       .  S
O1745     Cu1753   2.010       .  S
O1746     Cu1753   2.011       .  S
O1747     Cu2569   2.046       .  S
O1748     Cu1753   2.044       .  S
O1749     Cu1754   2.018       .  S
O1749      C1758   1.278   1_655  A
O1750     Cu2570   2.040       .  S
O1750      C1757   1.281       .  A
O1751     Cu1754   2.023       .  S
O1751      C1756   1.279   1_655  A
O1752     Cu1754   2.025   1_455  S
O1752      C1755   1.279       .  A
Cu1753     O2563   2.034       .  S
Cu1754     O2566   2.030       .  S
C1755      C2384   1.447       .  S
C1756      C2379   1.483   1_455  S
C1757      C2375   1.488       .  S
C1758      C2371   1.490       .  S
O1759     Cu1767   2.011       .  S
O1760     Cu1767   2.020       .  S
O1761     Cu1767   2.073       .  S
O1762     Cu1767   2.059       .  S
O1763     Cu1768   2.048       .  S
O1763      C1772   1.283       .  A
O1764     Cu1768   2.036       .  S
O1764      C1771   1.281   1_655  A
O1765     Cu1768   2.013       .  S
O1765      C1770   1.276       .  A
O1766     Cu1768   2.020       .  S
O1766      C1769   1.278   1_655  A
C1769      C2365   1.484       .  S
C1770      C2369   1.449       .  S
C1771      C2376   1.482       .  S
C1772      C2372   1.491       .  S
O1773     Cu1781   2.008       .  S
O1773      C1783   1.277       .  A
O1774     Cu1781   2.014       .  S
O1774      C1784   1.275       .  A
O1775     Cu1781   2.075       .  S
O1775      C1785   1.285       .  A
O1776     Cu2597   2.018       .  S
O1776      C1786   1.277       .  A
O1777     Cu2598   2.062       .  S
O1777      C1786   1.285       .  A
O1778     Cu1782   2.013       .  S
O1778      C1785   1.277       .  A
O1779     Cu1782   2.056       .  S
O1779      C1784   1.283       .  A
O1780     Cu1782   2.051       .  S
O1780      C1783   1.283       .  A
Cu1781     O2592   2.071       .  S
Cu1781    Cu1782   2.368       .  S
Cu1782     O2593   2.007       .  S
C1783      C2359   1.490       .  S
C1784      C2364   1.456       .  S
C1785      C2351   1.498       .  S
C1786      C2355   1.497       .  S
O1787     Cu1795   2.026       .  S
O1787      C1797   1.280       .  A
O1788     Cu1795   2.014       .  S
O1788      C1798   1.276       .  A
O1789     Cu1795   2.047       .  S
O1789      C1799   1.282       .  A
O1790     Cu1795   2.048       .  S
O1790      C1800   1.282       .  A
O1791     Cu1796   2.031       .  S
O1791      C1800   1.279       .  A
O1792     Cu1796   2.023       .  S
O1792      C1799   1.277       .  A
O1793     Cu1796   2.067       .  S
O1793      C1798   1.286       .  A
O1794     Cu1796   2.061       .  S
O1794      C1797   1.284       .  A
Cu1795    Cu1796   2.367       .  S
C1797      C2352   1.505       .  S
C1798      C2356   1.497       .  S
C1799      C2350   1.456       .  S
C1800      C2345   1.494       .  S
O1801     Cu1809   2.020       .  S
O1802     Cu1809   2.020       .  S
O1803     Cu1809   2.012       .  S
O1804     Cu2625   1.956       .  S
O1805     Cu2626   2.004   1_545  S
O1805      C1814   1.273       .  A
O1806     Cu1810   1.975       .  S
O1806      C1813   1.275       .  A
O1807     Cu1810   1.997       .  S
O1807      C1812   1.278       .  A
O1808     Cu1810   2.008       .  S
O1808      C1811   1.276       .  A
Cu1809     O2620   1.994       .  S
Cu1810     O2621   1.974       .  S
C1811      C2383   1.446       .  S
C1812      C2336   1.488       .  S
C1813      C2316   1.450       .  S
C1814      C2326   1.459       .  S
O1815     Cu1823   2.065       .  S
O1816     Cu1823   2.057       .  S
O1817     Cu1823   1.967       .  S
O1818     Cu1823   1.999       .  S
O1819     Cu1824   1.979       .  S
O1819      C1828   1.276   1_655  A
O1820     Cu1824   2.001       .  S
O1820      C1827   1.270       .  A
O1821     Cu1824   2.028       .  S
O1821      C1826   1.280       .  A
O1822     Cu1824   2.031       .  S
O1822      C1825   1.279       .  A
C1825      C2370   1.450       .  S
C1826      C2306   1.496       .  S
C1827      C2329   1.457       .  S
C1828      C2319   1.450       .  S
O1829     Cu1837   2.060       .  S
O1829      C1839   1.285       .  A
O1830     Cu1837   2.054       .  S
O1830      C1840   1.284       .  A
O1831     Cu1837   2.002       .  S
O1831      C1841   1.273       .  A
O1832     Cu2653   1.984   1_545  S
O1832      C1842   1.277       .  A
O1833     Cu2654   1.981       .  S
O1833      C1842   1.273       .  A
O1834     Cu1838   1.967       .  S
O1834      C1841   1.276       .  A
O1835     Cu1838   2.002       .  S
O1835      C1840   1.277       .  A
O1836     Cu1838   2.010       .  S
O1836      C1839   1.275       .  A
Cu1837     O2648   1.983       .  S
Cu1837    Cu1838   2.376       .  S
Cu1838     O2649   1.976       .  S
C1839      C2363   1.456       .  S
C1840      C2296   1.492       .  S
C1841      C2279   1.449       .  S
C1842      C2286   1.462       .  S
O1843     Cu1851   2.004       .  S
O1843      C1853   1.279       .  A
O1844     Cu1851   2.006       .  S
O1844      C1854   1.278       .  A
O1845     Cu1851   2.020       .  S
O1845      C1855   1.279       .  A
O1846     Cu1851   2.014       .  S
O1846      C1856   1.275       .  A
O1847     Cu1852   2.056       .  S
O1847      C1856   1.284       .  A
O1848     Cu1852   2.050       .  S
O1848      C1855   1.284       .  A
O1849     Cu1852   1.958       .  S
O1849      C1854   1.272       .  A
O1850     Cu1852   1.979       .  S
O1850      C1853   1.267       .  A
Cu1851    Cu1852   2.373       .  S
C1853      C2276   1.449       .  S
C1854      C2289   1.458       .  S
C1855      C2266   1.499       .  S
C1856      C2349   1.455       .  S
O1857     Cu1865   2.043       .  S
O1857      C2683   1.282       .  A
O1858     Cu1865   2.050       .  S
O1858      C2684   1.281       .  A
O1859      C2685   1.275       .  A
O1860     Cu1865   1.962   1_655  S
O1860      C2686   1.272       .  A
O1861     Cu1866   1.997   1_655  S
O1861      C1870   1.272       .  A
O1862      C1869   1.277       .  A
O1863     Cu1866   2.027       .  S
O1863      C1868   1.279   1_455  A
O1864     Cu1866   2.026       .  S
O1864      C1867   1.280   1_455  A
Cu1865    Cu2682   2.371       .  S
Cu1866    Cu2681   2.376   1_455  S
C1867      O2673   1.281       .  A
C1867      C2254   1.494       .  S
C1868      O2674   1.279       .  A
C1868      C2264   1.449       .  S
C1869      O2675   1.272       .  A
C1869      C2244   1.452       .  S
C1870      O2676   1.278       .  A
C1870      C2234   1.455       .  S
O1871     Cu1879   2.032       .  S
O1871      C1881   1.280       .  A
O1872     Cu1879   2.024       .  S
O1872      C1882   1.281   1_655  A
O1873     Cu1879   1.987       .  S
O1873      C1883   1.276       .  A
O1874      C1884   1.273       .  A
O1875      C1884   1.276       .  A
O1876     Cu1880   1.993       .  S
O1876      C1883   1.273   1_455  A
O1877     Cu1880   2.025       .  S
O1877      C1882   1.280       .  A
O1878     Cu1880   2.017       .  S
O1878      C1881   1.277   1_455  A
Cu1879    Cu1880   2.378   1_655  S
C1881      C2231   1.447       .  S
C1882      C2222   1.492       .  S
C1883      C2202   1.450       .  S
C1884      C2212   1.459       .  S
O1885     Cu1893   2.016       .  S
O1885      C2711   1.277       .  A
O1886     Cu1893   2.002       .  S
O1886      C2712   1.278   1_545  A
O1887     Cu1893   1.984       .  S
O1887      C2713   1.276   1_545  A
O1888     Cu1893   1.984       .  S
O1888      C2714   1.276       .  A
O1889     Cu1894   2.002       .  S
O1889      C1898   1.273       .  A
O1890     Cu1894   1.985       .  S
O1890      C1897   1.277       .  A
O1891     Cu1894   2.038       .  S
O1891      C1896   1.282       .  A
O1892     Cu1894   2.036       .  S
O1892      C1895   1.280       .  A
Cu1893    Cu2710   2.374   1_545  S
Cu1894    Cu2709   2.377       .  S
C1895      O2701   1.279       .  A
C1895      C2200   1.454       .  S
C1896      O2702   1.281       .  A
C1896      C2193   1.499       .  S
C1897      O2703   1.273       .  A
C1897      C2247   1.452       .  S
C1898      O2704   1.278       .  A
C1898      C2237   1.455       .  S
O1899     Cu1907   1.959       .  S
O1899      C1909   1.274       .  A
O1900     Cu1907   1.965       .  S
O1900      C1910   1.274       .  A
O1901     Cu1907   2.009       .  S
O1901      C1911   1.278       .  A
O1902     Cu1907   2.015       .  S
O1902      C1912   1.275       .  A
O1903     Cu1908   2.077       .  S
O1903      C1912   1.287       .  A
O1904     Cu1908   2.071       .  S
O1904      C1911   1.285       .  A
O1905     Cu1908   2.009       .  S
O1905      C1910   1.274       .  A
O1906     Cu1908   1.989       .  S
O1906      C1909   1.275       .  A
Cu1907    Cu1908   2.372       .  S
C1909      C2215   1.458       .  S
C1910      C2205   1.450       .  S
C1911      C2178   1.505       .  S
C1912      C2188   1.466       .  S
O1913     Cu1921   2.034       .  S
O1913      C2739   1.279       .  A
O1914     Cu1921   2.033   1_655  S
O1914      C2740   1.280       .  A
O1915      C2741   1.277   1_545  A
O1916     Cu1921   2.064   1_655  S
O1916      C2742   1.285       .  A
O1917     Cu1922   2.043   1_655  S
O1917      C1926   1.282       .  A
O1918      C1925   1.282       .  A
O1919     Cu1922   2.021       .  S
O1919      C1924   1.279       .  A
O1920     Cu1922   2.021       .  S
O1920      C1923   1.277   1_455  A
Cu1921    Cu2738   2.368   1_455  S
Cu1922    Cu2737   2.370       .  S
C1923      O2729   1.280   1_655  A
C1923      C2263   1.449       .  S
C1924      O2730   1.279       .  A
C1924      C2380   1.483       .  S
C1925      O2731   1.279       .  A
C1925      C2173   1.492       .  S
C1926      O2732   1.278       .  A
C1926      C2169   1.493       .  S
O1927     Cu1935   2.028       .  S
O1927      C1937   1.279       .  A
O1928     Cu1935   2.023       .  S
O1928      C1938   1.277       .  A
O1929     Cu1935   2.043       .  S
O1929      C1939   1.283       .  A
O1930      C1940   1.281       .  A
O1931      C1940   1.283       .  A
O1932     Cu1936   2.026       .  S
O1932      C1939   1.278       .  A
O1933     Cu1936   2.029       .  S
O1933      C1938   1.279       .  A
O1934     Cu1936   2.027       .  S
O1934      C1937   1.279       .  A
Cu1935    Cu1936   2.371       .  S
C1937      C2366   1.484       .  S
C1938      C2232   1.448       .  S
C1939      C2161   1.492       .  S
C1940      C2165   1.506       .  S
O1941     Cu1949   2.019       .  S
O1941      C1951   1.278       .  A
O1942     Cu1949   2.023       .  S
O1942      C1952   1.277       .  A
O1943     Cu1949   2.021       .  S
O1943      C1953   1.278       .  A
O1944     Cu1949   2.028       .  S
O1944      C1954   1.279       .  A
O1945     Cu1950   2.028       .  S
O1945      C2770   1.280       .  A
O1946     Cu1950   2.045       .  S
O1946      C2769   1.280       .  A
O1947     Cu1950   2.026       .  S
O1947      C2768   1.278       .  A
O1948     Cu1950   2.036       .  S
O1948      C2767   1.281       .  A
Cu1949    Cu2766   2.369       .  S
Cu1950    Cu2765   2.369   1_545  S
C1951      O2764   1.281       .  A
C1951      C2360   1.483       .  S
C1952      O2763   1.281       .  A
C1952      C2199   1.454       .  S
C1953      O2762   1.283       .  A
C1953      C2170   1.493       .  S
C1954      O2761   1.281       .  A
C1954      C2174   1.493       .  S
O1955     Cu1963   2.038       .  S
O1955      C1965   1.278       .  A
O1956     Cu1963   2.031       .  S
O1956      C1966   1.278       .  A
O1957     Cu1963   2.073       .  S
O1957      C1967   1.285       .  A
O1958     Cu1963   2.066       .  S
O1958      C1968   1.286       .  A
O1959     Cu1964   2.000       .  S
O1959      C1968   1.275       .  A
O1960     Cu1964   2.020       .  S
O1960      C1967   1.278       .  A
O1961     Cu1964   2.048       .  S
O1961      C1966   1.282       .  A
O1962     Cu1964   2.058       .  S
O1962      C1965   1.284       .  A
Cu1963    Cu1964   2.366       .  S
C1965      C2187   1.467       .  S
C1966      C2346   1.492       .  S
C1967      C2166   1.501       .  S
C1968      C2162   1.495       .  S
O1969     Cu1977   1.996       .  S
O1969      C1979   1.278       .  A
O1970      C1980   1.272       .  A
O1971     Cu1977   2.010       .  S
O1971      C1981   1.276       .  A
O1972      C1982   1.281       .  A
O1973      C2798   1.283       .  A
O1974     Cu1978   2.008       .  S
O1974      C2797   1.275       .  A
O1975      C2796   1.271       .  A
O1976     Cu1978   1.980       .  S
O1976      C2795   1.275       .  A
Cu1977    Cu2794   2.378       .  S
Cu1978    Cu2793   2.374       .  S
C1979      O2792   1.270       .  A
C1979      C2155   1.451       .  S
C1980      O2791   1.277       .  A
C1980      C2142   1.456       .  S
C1981      O2790   1.279       .  A
C1981      C2407   1.440       .  S
C1982      O2789   1.281       .  A
C1982      C2257   1.494       .  S
O1983     Cu1991   2.022       .  S
O1983      C1993   1.281   1_655  A
O1984     Cu1991   2.014       .  S
O1984      C1994   1.277   1_655  A
O1985     Cu1991   1.980       .  S
O1985      C1995   1.276       .  A
O1986      C1996   1.273       .  A
O1987      C1996   1.276       .  A
O1988     Cu1992   1.997       .  S
O1988      C1995   1.273   1_455  A
O1989     Cu1992   2.015       .  S
O1989      C1994   1.277       .  A
O1990     Cu1992   2.022       .  S
O1990      C1993   1.280       .  A
Cu1991    Cu1992   2.378   1_655  S
C1993      C2225   1.491       .  S
C1994      C2397   1.438       .  S
C1995      C2122   1.448       .  S
C1996      C2132   1.457       .  S
O1997     Cu2005   2.016       .  S
O1997      C2823   1.277   1_545  A
O1998     Cu2005   2.003       .  S
O1998      C2824   1.278   1_545  A
O1999     Cu2005   1.985       .  S
O1999      C2825   1.276       .  A
O2000     Cu2005   1.985       .  S
O2000      C2826   1.276   1_545  A
O2001     Cu2006   1.978       .  S
O2001      C2010   1.276       .  A
O2002     Cu2006   2.000       .  S
O2002      C2009   1.273       .  A
O2003     Cu2006   2.038       .  S
O2003      C2008   1.282       .  A
O2004     Cu2006   2.043       .  S
O2004      C2007   1.281       .  A
Cu2005    Cu2822   2.373   1_545  S
Cu2006    Cu2821   2.376       .  S
C2007      O2813   1.279       .  A
C2007      C2387   1.456       .  S
C2008      O2814   1.281       .  A
C2008      C2190   1.499       .  S
C2009      O2815   1.278       .  A
C2009      C2145   1.456       .  S
C2010      O2816   1.273       .  A
C2010      C2152   1.451       .  S
O2011     Cu2019   2.006       .  S
O2011      C2021   1.274       .  A
O2012     Cu2019   1.989       .  S
O2012      C2022   1.275       .  A
O2013     Cu2019   2.067       .  S
O2013      C2023   1.285       .  A
O2014     Cu2019   2.070       .  S
O2014      C2024   1.285       .  A
O2015     Cu2020   2.009       .  S
O2015      C2024   1.279       .  A
O2016     Cu2020   2.021       .  S
O2016      C2023   1.276       .  A
O2017     Cu2020   1.958       .  S
O2017      C2022   1.274       .  A
O2018     Cu2020   1.964       .  S
O2018      C2021   1.274       .  A
Cu2019    Cu2020   2.373       .  S
C2021      C2125   1.448       .  S
C2022      C2135   1.458       .  S
C2023      C2386   1.463       .  S
C2024      C2181   1.505       .  S
O2025     Cu2033   2.017       .  S
O2026     Cu2033   2.020       .  S
O2027     Cu2849   1.952   1_545  S
O2028     Cu2033   2.001       .  S
O2029     Cu2034   1.978       .  S
O2029      C2038   1.276       .  A
O2030     Cu2850   2.012   1_545  S
O2030      C2037   1.274       .  A
O2031     Cu2034   1.989       .  S
O2031      C2036   1.277       .  A
O2032     Cu2034   2.003       .  S
O2032      C2035   1.274       .  A
Cu2033     O2843   1.983       .  S
Cu2034     O2846   1.980       .  S
C2035      C2447   1.446       .  S
C2036      C2339   1.489       .  S
C2037      C2112   1.460       .  S
C2038      C2102   1.451       .  S
O2039     Cu2047   1.992       .  S
O2039      C2049   1.268       .  A
O2040     Cu2047   1.966       .  S
O2040      C2050   1.274       .  A
O2041     Cu2047   2.037       .  S
O2041      C2051   1.282       .  A
O2042     Cu2047   2.041       .  S
O2042      C2052   1.281       .  A
O2043     Cu2048   2.059       .  S
O2044     Cu2048   2.051       .  S
O2045     Cu2048   2.003       .  S
O2046     Cu2048   1.977       .  S
C2049      C2115   1.456       .  S
C2050      C2105   1.449   1_655  S
C2051      C2309   1.495       .  S
C2052      C2434   1.450       .  S
O2053     Cu2061   2.054       .  S
O2053      C2063   1.283       .  A
O2054     Cu2061   2.064       .  S
O2054      C2064   1.285       .  A
O2055     Cu2061   1.997       .  S
O2055      C2065   1.272       .  A
O2056     Cu2877   1.977   1_545  S
O2056      C2066   1.276       .  A
O2057     Cu2878   1.988       .  S
O2057      C2066   1.275       .  A
O2058     Cu2062   1.973       .  S
O2058      C2065   1.277       .  A
O2059     Cu2062   2.020       .  S
O2059      C2064   1.276       .  A
O2060     Cu2062   2.007       .  S
O2060      C2063   1.278       .  A
Cu2061     O2872   1.972       .  S
Cu2061    Cu2062   2.375       .  S
Cu2062     O2873   1.980       .  S
C2063      C2299   1.492       .  S
C2064      C2428   1.462       .  S
C2065      C2082   1.448       .  S
C2066      C2092   1.460       .  S
O2067     Cu2075   2.048       .  S
O2067      C2077   1.282       .  A
O2068     Cu2075   2.043       .  S
O2068      C2078   1.282       .  A
O2069     Cu2075   1.980       .  S
O2069      C2079   1.267       .  A
O2070     Cu2075   1.962       .  S
O2070      C2080   1.273       .  A
O2071     Cu2076   2.002       .  S
O2071      C2080   1.277       .  A
O2072     Cu2076   1.999       .  S
O2072      C2079   1.278       .  A
O2073     Cu2076   2.027       .  S
O2073      C2078   1.280       .  A
O2074     Cu2076   2.019       .  S
O2074      C2077   1.276       .  A
Cu2075    Cu2076   2.370       .  S
C2077      C2414   1.454       .  S
C2078      C2269   1.499       .  S
C2079      C2085   1.447       .  S
C2080      C2095   1.457       .  S
C2081      C2082   1.400       .  A
C2081      C2086   1.390       .  A
C2081      H2087   1.084       .  S
C2082      C2083   1.402       .  A
C2083      C2084   1.393       .  A
C2083      H2088   1.084       .  S
C2084      C2085   1.398       .  A
C2084      H2089   1.084       .  S
C2085      C2086   1.398       .  A
C2086      H2090   1.084       .  S
C2091      C2092   1.404       .  A
C2091      C2096   1.395       .  A
C2091      H2097   1.083       .  S
C2092      C2093   1.401       .  A
C2093      C2094   1.385       .  A
C2093      H2098   1.083       .  S
C2094      C2095   1.401       .  A
C2094      H2099   1.084       .  S
C2095      C2096   1.401       .  A
C2096      H2100   1.082       .  S
C2101      C2102   1.399       .  A
C2101      C2106   1.385       .  A
C2101      H2107   1.084       .  S
C2103      C2104   1.395       .  A
C2103      H2108   1.084       .  S
C2104      H2109   1.084       .  S
C2105      C2106   1.398       .  A
C2106      H2110   1.084   1_455  S
C2111      C2116   1.382       .  A
C2111      H2117   1.083       .  S
C2112      C2113   1.404       .  A
C2113      C2114   1.396       .  A
C2113      H2118   1.084       .  S
C2114      C2115   1.400       .  A
C2114      H2119   1.084       .  S
C2116      H2120   1.084       .  S
C2121      C2122   1.401       .  A
C2121      C2126   1.394       .  A
C2121      H2127   1.084       .  S
C2122      C2123   1.398       .  A
C2123      C2124   1.391       .  A
C2123      H2128   1.084       .  S
C2124      C2125   1.402       .  A
C2124      H2129   1.084       .  S
C2125      C2126   1.399       .  A
C2126      H2130   1.084       .  S
C2131      C2132   1.403       .  A
C2131      C2136   1.393       .  A
C2131      H2137   1.083       .  S
C2132      C2133   1.401       .  A
C2133      C2134   1.381       .  A
C2133      H2138   1.083       .  S
C2134      C2135   1.401       .  A
C2134      H2139   1.083       .  S
C2135      C2136   1.404       .  A
C2136      H2140   1.083       .  S
C2141      C2958   1.401       .  A
C2141      C2146   1.385       .  A
C2141      H2147   1.083       .  S
C2142      C2957   1.401       .  A
C2142      C2143   1.402       .  A
C2143      C2144   1.395       .  A
C2143      H2148   1.084       .  S
C2144      C2145   1.400       .  A
C2144      H2149   1.084       .  S
C2145      C2962   1.402       .  A
C2146      C2961   1.398       .  A
C2146      H2150   1.084       .  S
C2151      C2152   1.402       .  A
C2151      C2156   1.394       .  A
C2151      H2157   1.084       .  S
C2152      C2969   1.400       .  A
C2153      C2968   1.403       .  A
C2153      C2154   1.387       .  A
C2153      H2158   1.083       .  S
C2154      C2971   1.402       .  A
C2154      H2159   1.083       .  S
C2155      C2970   1.400       .  A
C2155      C2156   1.398       .  A
C2156      H2160   1.083       .  S
C2161      C2162   1.357       .  D
C2161      H2163   1.085       .  S
C2162      H2164   1.085       .  S
C2165      C2166   1.355       .  D
C2165      H2167   1.086       .  S
C2166      H2168   1.087       .  S
C2169      C2170   1.349       .  D
C2169      H2987   1.087       .  S
C2170      H2172   1.087       .  S
H2171      C2985   1.086       .  S
C2173      C2174   1.350       .  D
C2173      H2175   1.086       .  S
C2174      H2992   1.086       .  S
H2176      C2990   1.087       .  S
C2177      C2178   1.407       .  A
C2177      C2182   1.397   1_554  A
C2177      H2183   1.083       .  S
C2178      C2179   1.412       .  A
C2179      C2180   1.418   1_554  A
C2179      H2184   1.082       .  S
C2180      C2181   1.413       .  A
C2180      H2185   1.083       .  S
C2181      C2182   1.407       .  A
C2182      H2186   1.083       .  S
C2187      C2188   1.225       .  T
C2189      C3006   1.405   1_545  A
C2189      C2194   1.396   1_556  A
C2189      H2195   1.083       .  S
C2190      C3005   1.408       .  A
C2190      C2191   1.409       .  A
C2191      C2192   1.407   1_556  A
C2191      H2196   1.083       .  S
C2192      C2193   1.409       .  A
C2192      H2197   1.083       .  S
C2193      C3010   1.408       .  A
C2194      C3009   1.406   1_545  A
C2194      H2198   1.083       .  S
C2199      C2200   1.217       .  T
C2201      C2202   1.397       .  A
C2201      C2206   1.392       .  A
C2201      H2207   1.084       .  S
C2202      C2203   1.402       .  A
C2203      C2204   1.394       .  A
C2203      H2208   1.084       .  S
C2204      C2205   1.398       .  A
C2204      H2209   1.083       .  S
C2205      C2206   1.403       .  A
C2206      H2210   1.084       .  S
C2211      C2212   1.403       .  A
C2211      C2216   1.393       .  A
C2211      H2217   1.083       .  S
C2212      C2213   1.402       .  A
C2213      C2214   1.381       .  A
C2213      H2218   1.083       .  S
C2214      C2215   1.401       .  A
C2214      H2219   1.083       .  S
C2215      C2216   1.404       .  A
C2216      H2220   1.083       .  S
C2221      C2222   1.407   1_655  A
C2221      C2226   1.402   1_554  A
C2221      H2227   1.083       .  S
C2223      C2224   1.406   1_554  A
C2223      H2228   1.083       .  S
C2224      H2229   1.083       .  S
C2225      C2226   1.407   1_455  A
C2226      H2230   1.083       .  S
C2231      C2232   1.213       .  T
C2233      C2234   1.401       .  A
C2233      C2238   1.394       .  A
C2233      H2239   1.084       .  S
C2234      C3051   1.400       .  A
C2235      C3050   1.401       .  A
C2235      C2236   1.396   1_545  A
C2235      H2240   1.083   1_545  S
C2236      C3053   1.403   1_565  A
C2236      H2241   1.083       .  S
C2237      C3052   1.401       .  A
C2237      C2238   1.401       .  A
C2238      H2242   1.084       .  S
C2243      C3060   1.403       .  A
C2243      C2248   1.391   1_565  A
C2243      H2249   1.083   1_565  S
C2244      C3059   1.399       .  A
C2244      C2245   1.401       .  A
C2245      C2246   1.394       .  A
C2245      H2250   1.084       .  S
C2246      C2247   1.400       .  A
C2246      H2251   1.084       .  S
C2247      C3064   1.401       .  A
C2248      C3063   1.403   1_545  A
C2248      H2252   1.083       .  S
C2253      C2258   1.398   1_554  A
C2253      H2259   1.083       .  S
C2254      C2255   1.408   1_655  A
C2255      C2256   1.404   1_554  A
C2255      H2260   1.082       .  S
C2256      C2257   1.408   1_455  A
C2256      H2261   1.083       .  S
C2258      H2262   1.083       .  S
C2263      C2264   1.214       .  T
C2265      C2266   1.409       .  A
C2265      C2270   1.404       .  A
C2265      H2271   1.083       .  S
C2266      C2267   1.408       .  A
C2267      C2268   1.409       .  A
C2267      H2272   1.083       .  S
C2268      C2269   1.409       .  A
C2268      H2273   1.083       .  S
C2269      C2270   1.408       .  A
C2270      H2274   1.083       .  S
C2275      C2276   1.398       .  A
C2275      C2280   1.392       .  A
C2275      H2281   1.084       .  S
C2276      C2277   1.398       .  A
C2277      C2278   1.394       .  A
C2277      H2282   1.084       .  S
C2278      C2279   1.402       .  A
C2278      H2283   1.084       .  S
C2279      C2280   1.401       .  A
C2280      H2284   1.084       .  S
C2285      C2286   1.400       .  A
C2285      C2290   1.385       .  A
C2285      H2291   1.083       .  S
C2286      C2287   1.407       .  A
C2287      C2288   1.395       .  A
C2287      H2292   1.083       .  S
C2288      C2289   1.401       .  A
C2288      H2293   1.083       .  S
C2289      C2290   1.403       .  A
C2290      H2294   1.084       .  S
C2295      C2296   1.406       .  A
C2295      C2300   1.397       .  A
C2295      H2301   1.083       .  S
C2296      C3113   1.409       .  A
C2297      C3112   1.408   1_565  A
C2297      C2298   1.398       .  A
C2297      H2302   1.083       .  S
C2298      C3115   1.407   1_565  A
C2298      H2303   1.083       .  S
C2299      C3114   1.409       .  A
C2299      C2300   1.405       .  A
C2300      H2304   1.083       .  S
C2305      C2310   1.413       .  A
C2305      H2311   1.083       .  S
C2306      C2307   1.409       .  A
C2307      C2308   1.406       .  A
C2307      H2312   1.083       .  S
C2308      C2309   1.407       .  A
C2308      H2313   1.083       .  S
C2310      H2314   1.083       .  S
C2315      C2320   1.397       .  A
C2315      H2321   1.084       .  S
C2316      C2317   1.400       .  A
C2317      C2318   1.387       .  A
C2317      H2322   1.084       .  S
C2318      C2319   1.397       .  A
C2318      H2323   1.084       .  S
C2320      H2324   1.083       .  S
C2325      C2330   1.382       .  A
C2325      H2331   1.083       .  S
C2326      C2327   1.403       .  A
C2327      C2328   1.395       .  A
C2327      H2332   1.084       .  S
C2328      C2329   1.401       .  A
C2328      H2333   1.084       .  S
C2330      H2334   1.084       .  S
C2335      C3152   1.408       .  A
C2335      C2340   1.405   1_545  A
C2335      H2341   1.083   1_545  S
C2336      C3151   1.404       .  A
C2337      C2338   1.401       .  A
C2337      H2342   1.083       .  S
C2338      H2343   1.083       .  S
C2339      C3156   1.406       .  A
C2340      C3155   1.408   1_565  A
C2340      H2344   1.083       .  S
C2345      C2346   1.351       .  D
C2345      H2347   1.086       .  S
C2346      H2348   1.086       .  S
C2349      C2350   1.218       .  T
C2351      C2352   1.355       .  D
C2351      H2353   1.087       .  S
C2352      H2354   1.086       .  S
C2355      C2356   1.347       .  D
C2355      H2357   1.087       .  S
C2356      H2358   1.087       .  S
C2359      C2360   1.349       .  D
C2359      H3177   1.086       .  S
C2360      H2362   1.087       .  S
H2361      C3175   1.086   1_565  S
C2363      C2364   1.218       .  T
C2365      C2366   1.347   1_455  D
C2366      H2368   1.087       .  S
C2369      C2370   1.214       .  T
C2371      C2372   1.354   1_455  D
C2372      H2374   1.086       .  S
C2375      C2376   1.349   1_655  D
C2375      H2377   1.086       .  S
C2379      C2380   1.345   1_655  D
C2379      H3197   1.087       .  S
H2381      C3195   1.087       .  S
C2383      C2384   1.213       .  T
C2385      C2386   1.223       .  T
C2387      C2388   1.219       .  T
C2388      C2544   1.457       .  S
C2389      C2390   1.354       .  D
C2389      H2391   1.087       .  S
C2390      H2392   1.086       .  S
C2393      C2394   1.357       .  D
C2393      H2395   1.087       .  S
C2394      H2396   1.086       .  S
C2397      C2398   1.208       .  T
C2399      C2400   1.352   1_565  D
C2399      H3217   1.087       .  S
C2400      H2402   1.086       .  S
H2401      C3215   1.087       .  S
C2403      C2404   1.355       .  D
C2403      H3221   1.086       .  S
C2404      H2406   1.087   1_565  S
H2405      C3219   1.087       .  S
C2407      C2408   1.209       .  T
C2408      C2516   1.440       .  S
C2409      C2410   1.350       .  D
C2409      H2411   1.086       .  S
C2410      H2412   1.087       .  S
C2413      C2414   1.217       .  T
C2415      C2416   1.354       .  D
C2415      H2417   1.086       .  S
C2416      H2418   1.087       .  S
C2419      C2420   1.358       .  D
C2419      H2421   1.086       .  S
C2420      H2422   1.086       .  S
C2423      C2488   1.492       .  S
C2423      C2424   1.349   1_565  D
C2423      H3241   1.086       .  S
C2424      H2426   1.087       .  S
H2425      C3239   1.086       .  S
C2427      C2428   1.222       .  T
C2429      C2430   1.344       .  D
C2429      H2431   1.086       .  S
C2433      C2434   1.215       .  T
C2435      C2436   1.347   1_655  D
C2435      H2437   1.087       .  S
C2439      C2440   1.349       .  D
C2440      H2442   1.086       .  S
C2443      C2444   1.348       .  D
C2443      H2445   1.087       .  S
C2447      C2448   1.212       .  T
O2450     Cu2457   2.017       .  S
O2450      C2460   1.277   1_655  A
O2451      C2461   1.280       .  A
O2452     Cu2457   2.036       .  S
O2453      C2462   1.276       .  A
O2454     Cu2458   2.024       .  S
O2456     Cu2458   2.063       .  S
O2456      C2459   1.284       .  A
C2460      C3256   1.505       .  S
C2461      C3264   1.456       .  S
C2462      C3259   1.475       .  S
O2463     Cu2471   2.056   1_455  S
O2463      C2473   1.284       .  A
O2464     Cu2471   2.033       .  S
O2464      C2474   1.280   1_655  A
O2465     Cu2471   2.042   1_455  S
O2465      C2475   1.281       .  A
O2466     Cu2471   2.037       .  S
O2466      C2476   1.280   1_655  A
O2467     Cu2472   2.057       .  S
O2468     Cu2472   2.058       .  S
O2469     Cu2472   2.029       .  S
O2470     Cu2472   2.010       .  S
C2473      C3255   1.510       .  S
C2474      C3252   1.496       .  S
C2475      C3249   1.462       .  S
C2476      C3245   1.494       .  S
O2477     Cu2485   2.051   1_545  S
O2477      C2487   1.282       .  A
O2478     Cu2485   2.040       .  S
O2478      C2488   1.281       .  A
O2479     Cu2485   2.036       .  S
O2479      C2489   1.281       .  A
O2480      C2490   1.289       .  A
O2481      C2490   1.276       .  A
O2482     Cu2486   2.067   1_565  S
O2482      C2489   1.284       .  A
O2483     Cu2486   2.034       .  S
O2483      C2488   1.280   1_545  A
O2484     Cu2486   2.040       .  S
O2484      C2487   1.279       .  A
Cu2485    Cu2486   2.364   1_565  S
C2487      C3243   1.464       .  S
C2489      C3232   1.512       .  S
C2490      C3235   1.509       .  S
O2491     Cu2499   2.089       .  S
O2491      C2501   1.289       .  A
O2492     Cu2499   2.101       .  S
O2492      C2502   1.289       .  A
O2493     Cu2499   2.025       .  S
O2493      C2503   1.276       .  A
O2494     Cu2499   2.037       .  S
O2494      C2504   1.279       .  A
O2495     Cu2500   2.055       .  S
O2495      C2504   1.283       .  A
O2496     Cu2500   2.059       .  S
O2496      C2503   1.284       .  A
O2497     Cu2500   2.005       .  S
O2497      C2502   1.276       .  A
O2498     Cu2500   2.020       .  S
O2498      C2501   1.276       .  A
Cu2499    Cu2500   2.362       .  S
C2501      C3236   1.508       .  S
C2502      C3231   1.505       .  S
C2503      C3229   1.462       .  S
C2504      C3225   1.498       .  S
O2505     Cu2513   2.020       .  S
O2506     Cu2513   2.025       .  S
O2508     Cu2513   2.056       .  S
O2509     Cu2514   2.050       .  S
O2509      C2518   1.283       .  A
O2510      C2517   1.282       .  A
O2511     Cu2514   2.005       .  S
O2511      C2516   1.275       .  A
O2512     Cu2514   2.011       .  S
O2512      C2515   1.278       .  A
C2515      C3260   1.479       .  S
C2517      C3215   1.494       .  S
C2518      C3219   1.493       .  S
O2519      C2529   1.283       .  A
O2520     Cu2527   2.036   1_655  S
O2520      C2530   1.280       .  A
O2521     Cu2527   2.049       .  S
O2521      C2531   1.282       .  A
O2522     Cu2527   2.058       .  S
O2522      C2532   1.283       .  A
O2523     Cu2528   2.030       .  S
O2523      C2532   1.277       .  A
O2524     Cu2528   2.033       .  S
O2524      C2531   1.279       .  A
O2525     Cu2528   2.066   1_655  S
O2525      C2530   1.284       .  A
O2526      C2529   1.280       .  A
Cu2527    Cu2528   2.366       .  S
C2529      C3209   1.500       .  S
C2530      C3205   1.505       .  S
C2531      C3246   1.496       .  S
C2532      C3214   1.463       .  S
O2533     Cu2541   2.043       .  S
O2534     Cu2541   2.026       .  S
O2535     Cu2541   2.070       .  S
O2536     Cu2541   2.064       .  S
O2537     Cu2542   2.013       .  S
O2537      C2546   1.277       .  A
O2538     Cu2542   2.023       .  S
O2538      C2545   1.278       .  A
O2539     Cu2542   2.031       .  S
O2539      C2544   1.279       .  A
O2540     Cu2542   2.026       .  S
O2540      C2543   1.279       .  A
C2543      C3240   1.487       .  S
C2545      C3220   1.493       .  S
C2546      C3216   1.491       .  S
O2547     Cu2555   2.049       .  S
O2547      C2557   1.283       .  A
O2548     Cu2555   2.061       .  S
O2548      C2558   1.284       .  A
O2549     Cu2555   2.034       .  S
O2549      C2559   1.279       .  A
O2550     Cu2555   2.049       .  S
O2550      C2560   1.282       .  A
O2551     Cu2556   2.053       .  S
O2551      C2560   1.283       .  A
O2552     Cu2556   2.055       .  S
O2552      C2559   1.284       .  A
O2553     Cu2556   2.040       .  S
O2553      C2558   1.279       .  A
O2554     Cu2556   2.039       .  S
O2554      C2557   1.280       .  A
Cu2555    Cu2556   2.365       .  S
C2557      C3226   1.498       .  S
C2558      C3201   1.468       .  S
C2559      C3210   1.501       .  S
C2560      C3206   1.508       .  S
O2561     Cu2569   2.027       .  S
O2562     Cu2569   2.032       .  S
O2564     Cu2569   2.034   1_565  S
O2565     Cu2570   2.047   1_565  S
O2565      C2574   1.283   1_655  A
O2566      C2573   1.280   1_655  A
O2567     Cu2570   2.029       .  S
O2567      C2572   1.279   1_655  A
O2568     Cu2570   2.032       .  S
O2568      C2571   1.279       .  A
C2571      C3200   1.457       .  S
C2572      C3195   1.489       .  S
C2573      C3191   1.495       .  S
C2574      C3187   1.495       .  S
O2575     Cu2583   2.062       .  S
O2576     Cu2583   2.071       .  S
O2577     Cu2583   1.993       .  S
O2578     Cu2583   2.024       .  S
O2579     Cu2584   2.018       .  S
O2579      C2588   1.277   1_655  A
O2580     Cu2584   2.017   1_455  S
O2580      C2587   1.278       .  A
O2581     Cu2584   2.057   1_455  S
O2581      C2586   1.284       .  A
O2582     Cu2584   2.054       .  S
O2582      C2585   1.282   1_655  A
C2585      C3181   1.483       .  S
C2586      C3185   1.456       .  S
C2587      C3192   1.500       .  S
C2588      C3188   1.493       .  S
O2589     Cu2597   2.048       .  S
O2589      C2599   1.282       .  A
O2590     Cu2597   2.057       .  S
O2590      C2600   1.283       .  A
O2591     Cu2597   2.011   1_565  S
O2591      C2601   1.277       .  A
O2592      C2602   1.287       .  A
O2593      C2602   1.275       .  A
O2594     Cu2598   2.072   1_565  S
O2594      C2601   1.286       .  A
O2595     Cu2598   2.031       .  S
O2595      C2600   1.277       .  A
O2596     Cu2598   2.024       .  S
O2596      C2599   1.278       .  A
Cu2597    Cu2598   2.366       .  S
C2599      C3175   1.491       .  S
C2600      C3180   1.464       .  S
C2601      C3167   1.505       .  S
C2602      C3171   1.498       .  S
O2603     Cu2611   2.069       .  S
O2603      C2613   1.284       .  A
O2604     Cu2611   2.052       .  S
O2604      C2614   1.284       .  A
O2605     Cu2611   2.041       .  S
O2605      C2615   1.279       .  A
O2606     Cu2611   2.037       .  S
O2606      C2616   1.279       .  A
O2607     Cu2612   2.055       .  S
O2607      C2616   1.283       .  A
O2608     Cu2612   2.063       .  S
O2608      C2615   1.284       .  A
O2609     Cu2612   2.027       .  S
O2609      C2614   1.277       .  A
O2610     Cu2612   2.016       .  S
O2610      C2613   1.278       .  A
Cu2611    Cu2612   2.365       .  S
C2613      C3168   1.497       .  S
C2614      C3172   1.496       .  S
C2615      C3166   1.469       .  S
C2616      C3161   1.496       .  S
O2617     Cu2625   2.010       .  S
O2618     Cu2625   2.005   1_565  S
O2619     Cu2625   1.953   1_565  S
O2621      C2630   1.274       .  A
O2622     Cu2626   1.977       .  S
O2622      C2629   1.277   1_655  A
O2623     Cu2626   2.033   1_545  S
O2623      C2628   1.282       .  A
O2624     Cu2626   2.035       .  S
O2624      C2627   1.279   1_565  A
C2627      C3199   1.457       .  S
C2628      C3152   1.503       .  S
C2629      C3132   1.446       .  S
C2630      C3142   1.457       .  S
O2631     Cu2639   2.018       .  S
O2632     Cu2639   2.007       .  S
O2633     Cu2639   1.979       .  S
O2634     Cu2639   1.971       .  S
O2635     Cu2640   1.996       .  S
O2635      C2644   1.277       .  A
O2636     Cu2640   1.993       .  S
O2636      C2643   1.277       .  A
O2637     Cu2640   2.010       .  S
O2637      C2642   1.279       .  A
O2638     Cu2640   2.019       .  S
O2638      C2641   1.276       .  A
C2641      C3186   1.456       .  S
C2642      C3122   1.500       .  S
C2643      C3145   1.456       .  S
C2644      C3135   1.446       .  S
O2645     Cu2653   2.014       .  S
O2645      C2655   1.275   1_565  A
O2646     Cu2653   2.005       .  S
O2646      C2656   1.278   1_565  A
O2647     Cu2653   1.982       .  S
O2647      C2657   1.276       .  A
O2648      C2658   1.276       .  A
O2649      C2658   1.275       .  A
O2650     Cu2654   1.990   1_565  S
O2650      C2657   1.271       .  A
O2651     Cu2654   2.077       .  S
O2651      C2656   1.286       .  A
O2652     Cu2654   2.074       .  S
O2652      C2655   1.286       .  A
Cu2653    Cu2654   2.373   1_565  S
C2655      C3179   1.463       .  S
C2656      C3112   1.505       .  S
C2657      C3095   1.446       .  S
C2658      C3102   1.459       .  S
O2659     Cu2667   1.994       .  S
O2659      C2669   1.272       .  A
O2660     Cu2667   1.976       .  S
O2660      C2670   1.275       .  A
O2661     Cu2667   2.070       .  S
O2661      C2671   1.285       .  A
O2662     Cu2667   2.076       .  S
O2662      C2672   1.287       .  A
O2663     Cu2668   2.023       .  S
O2663      C2672   1.276       .  A
O2664     Cu2668   2.008       .  S
O2664      C2671   1.278       .  A
O2665     Cu2668   1.983       .  S
O2665      C2670   1.276       .  A
O2666     Cu2668   1.977       .  S
O2666      C2669   1.276       .  A
Cu2667    Cu2668   2.373       .  S
C2669      C3092   1.447       .  S
C2670      C3105   1.461       .  S
C2671      C3082   1.502       .  S
C2672      C3165   1.468       .  S
O2673     Cu2681   2.030       .  S
O2674     Cu2681   2.026       .  S
O2676     Cu2681   1.992       .  S
O2677     Cu2682   2.002       .  S
O2677      C2686   1.275   1_455  A
O2678      C2685   1.275       .  A
O2679     Cu2682   2.026       .  S
O2679      C2684   1.278       .  A
O2680     Cu2682   2.034       .  S
O2680      C2683   1.282       .  A
C2683      C3070   1.503       .  S
C2684      C3080   1.458       .  S
C2685      C3060   1.460       .  S
C2686      C3050   1.451       .  S
O2687     Cu2695   2.066       .  S
O2687      C2697   1.286       .  A
O2688     Cu2695   2.070       .  S
O2688      C2698   1.286       .  A
O2689     Cu2695   1.990   1_655  S
O2689      C2699   1.271       .  A
O2690      C2700   1.276       .  A
O2691      C2700   1.274       .  A
O2692     Cu2696   1.984       .  S
O2692      C2699   1.278       .  A
O2693     Cu2696   2.003       .  S
O2693      C2698   1.277   1_655  A
O2694     Cu2696   2.005       .  S
O2694      C2697   1.274   1_655  A
Cu2695    Cu2696   2.374   1_455  S
C2697      C3047   1.456       .  S
C2698      C3038   1.502       .  S
C2699      C3018   1.447       .  S
C2700      C3028   1.457       .  S
O2701     Cu2709   2.030       .  S
O2702     Cu2709   2.031       .  S
O2703     Cu2709   1.999       .  S
O2704     Cu2709   1.987       .  S
O2705     Cu2710   1.975       .  S
O2705      C2714   1.271   1_565  A
O2706     Cu2710   1.972       .  S
O2706      C2713   1.275       .  A
O2707     Cu2710   2.032       .  S
O2707      C2712   1.281       .  A
O2708     Cu2710   2.027       .  S
O2708      C2711   1.279   1_565  A
C2711      C3016   1.445       .  S
C2712      C3009   1.486       .  S
C2713      C3063   1.461       .  S
C2714      C3053   1.452       .  S
O2715     Cu2723   1.974       .  S
O2715      C2725   1.274       .  A
O2716     Cu2723   1.989       .  S
O2716      C2726   1.271       .  A
O2717     Cu2723   2.075       .  S
O2717      C2727   1.286       .  A
O2718     Cu2723   2.075       .  S
O2718      C2728   1.287       .  A
O2719     Cu2724   2.016       .  S
O2719      C2728   1.275       .  A
O2720     Cu2724   2.009       .  S
O2720      C2727   1.278       .  A
O2721     Cu2724   1.982       .  S
O2721      C2726   1.277       .  A
O2722     Cu2724   1.985       .  S
O2722      C2725   1.277       .  A
Cu2723    Cu2724   2.373       .  S
C2725      C3031   1.461       .  S
C2726      C3021   1.447       .  S
C2727      C2994   1.506       .  S
C2728      C3004   1.464       .  S
O2729     Cu2737   2.033       .  S
O2730     Cu2737   2.031       .  S
O2732     Cu2737   2.024   1_655  S
O2733     Cu2738   2.018       .  S
O2733      C2742   1.278       .  A
O2734      C2741   1.284       .  A
O2735     Cu2738   2.030       .  S
O2735      C2740   1.279       .  A
O2736     Cu2738   2.042       .  S
O2736      C2739   1.281   1_655  A
C2739      C3079   1.458       .  S
C2740      C3196   1.487       .  S
C2741      C2989   1.499       .  S
C2742      C2985   1.500       .  S
O2743     Cu2751   2.005       .  S
O2743      C2753   1.277   1_455  A
O2744     Cu2751   2.012       .  S
O2744      C2754   1.275       .  A
O2745     Cu2751   2.071   1_655  S
O2745      C2755   1.284       .  A
O2746      C2756   1.277       .  A
O2747      C2756   1.284       .  A
O2748     Cu2752   2.012       .  S
O2748      C2755   1.278       .  A
O2749     Cu2752   2.058       .  S
O2749      C2754   1.284   1_655  A
O2750     Cu2752   2.052       .  S
O2750      C2753   1.283       .  A
Cu2751    Cu2752   2.367   1_455  S
C2753      C3182   1.492       .  S
C2754      C3048   1.456       .  S
C2755      C2977   1.496       .  S
C2756      C2981   1.495       .  S
O2757     Cu2765   2.033       .  S
O2757      C2767   1.279   1_565  A
O2758     Cu2765   2.020       .  S
O2758      C2768   1.277   1_565  A
O2759     Cu2765   2.036       .  S
O2759      C2769   1.282   1_565  A
O2760     Cu2765   2.049       .  S
O2760      C2770   1.281   1_565  A
O2761     Cu2766   2.038       .  S
O2762     Cu2766   2.049       .  S
O2763     Cu2766   2.041       .  S
O2764     Cu2766   2.043       .  S
C2767      C3176   1.491       .  S
C2768      C3015   1.445       .  S
C2769      C2986   1.497       .  S
C2770      C2990   1.494       .  S
O2771     Cu2779   2.062       .  S
O2771      C2781   1.284       .  A
O2772     Cu2779   2.058       .  S
O2772      C2782   1.284       .  A
O2773     Cu2779   1.999       .  S
O2773      C2783   1.274       .  A
O2774     Cu2779   2.014       .  S
O2774      C2784   1.278       .  A
O2775     Cu2780   2.068       .  S
O2775      C2784   1.285       .  A
O2776     Cu2780   2.070       .  S
O2776      C2783   1.286       .  A
O2777     Cu2780   2.034       .  S
O2777      C2782   1.279       .  A
O2778     Cu2780   2.029       .  S
O2778      C2781   1.277       .  A
Cu2779    Cu2780   2.366       .  S
C2781      C3003   1.464       .  S
C2782      C3162   1.502       .  S
C2783      C2982   1.492       .  S
C2784      C2978   1.504       .  S
O2785     Cu2793   1.980       .  S
O2785      C2795   1.275       .  A
O2786      C2796   1.275       .  A
O2787     Cu2793   2.060       .  S
O2787      C2797   1.284       .  A
O2788      C2798   1.280       .  A
O2790     Cu2794   2.021       .  S
O2792     Cu2794   1.989       .  S
C2795      C2971   1.462       .  S
C2796      C2958   1.450       .  S
C2797      C3223   1.456       .  S
C2798      C3073   1.503       .  S
O2799     Cu2807   2.067       .  S
O2799      C2809   1.285       .  A
O2800     Cu2807   2.070       .  S
O2800      C2810   1.286       .  A
O2801     Cu2807   1.994   1_655  S
O2801      C2811   1.272       .  A
O2802      C2812   1.275       .  A
O2803      C2812   1.276       .  A
O2804     Cu2808   1.982       .  S
O2804      C2811   1.277       .  A
O2805     Cu2808   2.017       .  S
O2805      C2810   1.275   1_655  A
O2806     Cu2808   2.010       .  S
O2806      C2809   1.278   1_655  A
Cu2807    Cu2808   2.373   1_455  S
C2809      C3041   1.502       .  S
C2810      C3213   1.463       .  S
C2811      C2938   1.448       .  S
C2812      C2948   1.463       .  S
O2813     Cu2821   2.029       .  S
O2814     Cu2821   2.031       .  S
O2815     Cu2821   1.992       .  S
O2816     Cu2821   2.000       .  S
O2817     Cu2822   1.970       .  S
O2817      C2826   1.274       .  A
O2818     Cu2822   1.969       .  S
O2818      C2825   1.271   1_565  A
O2819     Cu2822   2.031       .  S
O2819      C2824   1.281       .  A
O2820     Cu2822   2.031       .  S
O2820      C2823   1.279       .  A
C2823      C3203   1.447       .  S
C2824      C3006   1.486       .  S
C2825      C2961   1.452       .  S
C2826      C2968   1.461       .  S
O2827     Cu2835   1.973       .  S
O2827      C2837   1.275       .  A
O2828     Cu2835   1.979       .  S
O2828      C2838   1.275       .  A
O2829     Cu2835   2.027       .  S
O2829      C2839   1.277       .  A
O2830     Cu2835   2.017       .  S
O2830      C2840   1.280       .  A
O2831     Cu2836   2.072       .  S
O2831      C2840   1.285       .  A
O2832     Cu2836   2.071       .  S
O2832      C2839   1.286       .  A
O2833     Cu2836   1.990       .  S
O2833      C2838   1.276       .  A
O2834     Cu2836   1.997       .  S
O2834      C2837   1.272       .  A
Cu2835    Cu2836   2.372       .  S
C2837      C2941   1.447       .  S
C2838      C2951   1.465       .  S
C2839      C3202   1.467       .  S
C2840      C2997   1.507       .  S
O2841     Cu2849   2.014       .  S
O2842     Cu2849   2.007       .  S
O2844     Cu2849   1.948       .  S
O2845     Cu2850   1.994       .  S
O2845      C2854   1.278   1_655  A
O2846      C2853   1.275       .  A
O2847     Cu2850   2.033       .  S
O2847      C2852   1.282   1_565  A
O2848     Cu2850   2.036       .  S
O2848      C2851   1.279   1_565  A
C2851      C3263   1.456   1_545  S
C2852      C3155   1.503       .  S
C2853      C2928   1.460       .  S
C2854      C2918   1.450       .  S
O2855     Cu2863   1.976       .  S
O2855      C2865   1.274       .  A
O2856     Cu2863   1.980       .  S
O2856      C2866   1.276       .  A
O2857     Cu2863   2.017       .  S
O2857      C2867   1.280       .  A
O2858     Cu2863   2.023       .  S
O2858      C2868   1.277       .  A
O2859     Cu2864   2.013       .  S
O2860     Cu2864   2.006       .  S
O2861     Cu2864   1.972       .  S
O2862     Cu2864   1.980       .  S
C2865      C2931   1.460       .  S
C2866      C2921   1.450       .  S
C2867      C3125   1.501       .  S
C2868      C3250   1.461       .  S
O2869     Cu2877   2.011       .  S
O2869      C2879   1.279   1_565  A
O2870     Cu2877   2.021       .  S
O2870      C2880   1.276   1_565  A
O2871     Cu2877   1.977       .  S
O2871      C2881   1.275       .  A
O2872      C2882   1.274       .  A
O2873      C2882   1.275       .  A
O2874     Cu2878   1.997   1_565  S
O2874      C2881   1.272       .  A
O2875     Cu2878   2.068       .  S
O2875      C2880   1.285       .  A
O2876     Cu2878   2.072       .  S
O2876      C2879   1.285       .  A
Cu2877    Cu2878   2.372   1_565  S
C2879      C3115   1.505       .  S
C2880      C3244   1.464       .  S
C2881      C2898   1.448       .  S
C2882      C2908   1.459       .  S
O2883     Cu2891   2.012       .  S
O2883      C2893   1.274       .  A
O2884     Cu2891   2.002       .  S
O2884      C2894   1.278       .  A
O2885     Cu2891   1.980       .  S
O2885      C2895   1.276       .  A
O2886     Cu2891   1.981       .  S
O2886      C2896   1.276       .  A
O2887     Cu2892   1.976       .  S
O2887      C2896   1.274       .  A
O2888     Cu2892   1.994       .  S
O2888      C2895   1.272       .  A
O2889     Cu2892   2.069       .  S
O2889      C2894   1.285       .  A
O2890     Cu2892   2.074       .  S
O2890      C2893   1.286       .  A
Cu2891    Cu2892   2.374       .  S
C2893      C3230   1.462       .  S
C2894      C3085   1.501       .  S
C2895      C2901   1.448       .  S
C2896      C2911   1.459       .  S
C2897      C2898   1.399       .  A
C2897      C2902   1.391       .  A
C2897      H2903   1.084       .  S
C2898      C2899   1.400       .  A
C2899      C2900   1.393       .  A
C2899      H2904   1.084       .  S
C2900      C2901   1.399       .  A
C2900      H2905   1.084       .  S
C2901      C2902   1.400       .  A
C2902      H2906   1.084       .  S
C2907      C2908   1.401       .  A
C2907      C2912   1.389       .  A
C2907      H2913   1.083       .  S
C2908      C2909   1.403       .  A
C2909      C2910   1.387       .  A
C2909      H2914   1.083       .  S
C2910      C2911   1.400       .  A
C2910      H2915   1.083       .  S
C2911      C2912   1.404       .  A
C2912      H2916   1.083       .  S
C2917      C2918   1.398       .  A
C2917      C2922   1.392       .  A
C2917      H2923   1.084       .  S
C2919      C2920   1.396       .  A
C2919      H2924   1.083       .  S
C2920      H2925   1.081       .  S
C2921      C2922   1.402       .  A
C2922      H2926   1.084       .  S
C2927      C2932   1.394       .  A
C2927      H2933   1.084       .  S
C2928      C2929   1.403       .  A
C2929      C2930   1.392       .  A
C2929      H2934   1.083   1_455  S
C2930      C2931   1.403       .  A
C2930      H2935   1.083       .  S
C2932      H2936   1.084       .  S
C2937      C2938   1.400       .  A
C2937      C2942   1.391       .  A
C2937      H2943   1.084       .  S
C2938      C2939   1.399       .  A
C2939      C2940   1.393       .  A
C2939      H2944   1.084       .  S
C2940      C2941   1.400       .  A
C2940      H2945   1.084       .  S
C2941      C2942   1.399       .  A
C2942      H2946   1.084       .  S
C2947      C2948   1.403       .  A
C2947      C2952   1.392       .  A
C2947      H2953   1.083       .  S
C2948      C2949   1.402       .  A
C2949      C2950   1.389       .  A
C2949      H2954   1.083       .  S
C2950      C2951   1.403       .  A
C2950      H2955   1.083       .  S
C2951      C2952   1.404       .  A
C2952      H2956   1.083       .  S
C2957      C2962   1.395       .  A
C2957      H2963   1.084       .  S
C2958      C2959   1.399   1_545  A
C2959      C2960   1.392       .  A
C2959      H2964   1.083       .  S
C2960      C2961   1.402   1_565  A
C2960      H2965   1.082       .  S
C2962      H2966   1.084       .  S
C2967      C2968   1.402       .  A
C2967      C2972   1.390       .  A
C2967      H2973   1.083   1_565  S
C2969      C2970   1.392       .  A
C2969      H2974   1.084       .  S
C2970      H2975   1.084       .  S
C2971      C2972   1.403       .  A
C2972      H2976   1.083   1_565  S
C2977      C2978   1.356       .  D
C2977      H2979   1.087       .  S
C2978      H2980   1.086       .  S
C2981      C2982   1.345       .  D
C2981      H2983   1.086       .  S
C2982      H2984   1.087       .  S
C2985      C2986   1.357       .  D
C2986      H2988   1.087   1_545  S
C2989      C2990   1.355   1_565  D
C2989      H2991   1.086       .  S
C2993      C2994   1.412       .  A
C2993      C2998   1.419   1_554  A
C2993      H2999   1.083       .  S
C2994      C2995   1.408       .  A
C2995      C2996   1.399   1_554  A
C2995      H3000   1.083       .  S
C2996      C2997   1.407       .  A
C2996      H3001   1.083       .  S
C2997      C2998   1.413       .  A
C2998      H3002   1.083       .  S
C3003      C3004   1.223       .  T
C3005      C3010   1.405   1_556  A
C3005      H3011   1.083       .  S
C3006      C3007   1.407       .  A
C3007      C3008   1.405   1_556  A
C3007      H3012   1.083       .  S
C3008      C3009   1.407       .  A
C3008      H3013   1.083       .  S
C3010      H3014   1.083       .  S
C3015      C3016   1.212       .  T
C3017      C3018   1.400       .  A
C3017      C3022   1.391       .  A
C3017      H3023   1.084       .  S
C3018      C3019   1.399       .  A
C3019      C3020   1.391       .  A
C3019      H3024   1.084       .  S
C3020      C3021   1.400       .  A
C3020      H3025   1.084       .  S
C3021      C3022   1.398       .  A
C3022      H3026   1.084       .  S
C3027      C3028   1.402       .  A
C3027      C3032   1.389       .  A
C3027      H3033   1.083       .  S
C3028      C3029   1.400       .  A
C3029      C3030   1.389       .  A
C3029      H3034   1.083       .  S
C3030      C3031   1.404       .  A
C3030      H3035   1.083       .  S
C3031      C3032   1.402       .  A
C3032      H3036   1.083       .  S
C3037      C3038   1.411       .  A
C3037      C3042   1.417   1_554  A
C3037      H3043   1.083       .  S
C3039      C3040   1.417   1_554  A
C3039      H3044   1.083       .  S
C3040      H3045   1.083       .  S
C3041      C3042   1.412       .  A
C3042      H3046   1.083       .  S
C3047      C3048   1.219       .  T
C3049      C3050   1.400       .  A
C3049      C3054   1.384       .  A
C3049      H3055   1.083       .  S
C3051      C3052   1.395       .  A
C3051      H3056   1.084       .  S
C3052      H3057   1.084       .  S
C3053      C3054   1.398       .  A
C3054      H3058   1.084       .  S
C3059      C3064   1.393       .  A
C3059      H3065   1.084       .  S
C3060      C3061   1.402       .  A
C3061      C3062   1.386       .  A
C3061      H3066   1.083       .  S
C3062      C3063   1.403       .  A
C3062      H3067   1.083       .  S
C3064      H3068   1.084       .  S
C3069      C3074   1.399   1_554  A
C3069      H3075   1.083       .  S
C3070      C3071   1.408       .  A
C3071      C3072   1.405   1_554  A
C3071      H3076   1.083       .  S
C3072      C3073   1.409       .  A
C3072      H3077   1.083       .  S
C3074      H3078   1.083       .  S
C3079      C3080   1.220       .  T
C3081      C3082   1.412       .  A
C3081      C3086   1.418       .  A
C3081      H3087   1.083       .  S
C3082      C3083   1.406       .  A
C3083      C3084   1.396       .  A
C3083      H3088   1.083       .  S
C3084      C3085   1.406       .  A
C3084      H3089   1.083       .  S
C3085      C3086   1.412       .  A
C3086      H3090   1.083       .  S
C3091      C3092   1.400       .  A
C3091      C3096   1.391       .  A
C3091      H3097   1.084       .  S
C3092      C3093   1.400       .  A
C3093      C3094   1.392       .  A
C3093      H3098   1.084       .  S
C3094      C3095   1.398       .  A
C3094      H3099   1.084       .  S
C3095      C3096   1.399       .  A
C3096      H3100   1.084       .  S
C3101      C3102   1.401       .  A
C3101      C3106   1.388       .  A
C3101      H3107   1.083       .  S
C3102      C3103   1.403       .  A
C3103      C3104   1.390       .  A
C3103      H3108   1.083       .  S
C3104      C3105   1.402       .  A
C3104      H3109   1.083       .  S
C3105      C3106   1.404       .  A
C3106      H3110   1.083       .  S
C3111      C3112   1.412       .  A
C3111      C3116   1.419       .  A
C3111      H3117   1.083       .  S
C3113      C3114   1.412       .  A
C3113      H3118   1.083       .  S
C3114      H3119   1.083       .  S
C3115      C3116   1.413       .  A
C3116      H3120   1.083       .  S
C3121      C3126   1.396       .  A
C3121      H3127   1.083       .  S
C3122      C3123   1.408       .  A
C3123      C3124   1.399       .  A
C3123      H3128   1.083       .  S
C3124      C3125   1.407       .  A
C3124      H3129   1.083       .  S
C3126      H3130   1.083       .  S
C3131      C3136   1.382       .  A
C3131      H3137   1.080       .  S
C3132      C3133   1.398       .  A
C3133      C3134   1.389       .  A
C3133      H3138   1.084       .  S
C3134      C3135   1.398       .  A
C3134      H3139   1.084       .  S
C3136      H3140   1.083       .  S
C3141      C3146   1.392       .  A
C3141      H3147   1.084       .  S
C3142      C3143   1.404       .  A
C3143      C3144   1.392       .  A
C3143      H3148   1.083   1_455  S
C3144      C3145   1.401       .  A
C3144      H3149   1.083   1_455  S
C3146      H3150   1.084       .  S
C3151      C3156   1.392       .  A
C3151      H3157   1.083       .  S
C3153      C3154   1.396       .  A
C3153      H3158   1.083       .  S
C3154      H3159   1.083       .  S
C3156      H3160   1.083       .  S
C3161      C3162   1.355       .  D
C3161      H3163   1.086       .  S
C3162      H3164   1.086       .  S
C3165      C3166   1.226       .  T
C3167      C3168   1.356       .  D
C3167      H3169   1.086       .  S
C3168      H3170   1.087       .  S
C3171      C3172   1.359       .  D
C3171      H3173   1.086       .  S
C3172      H3174   1.086       .  S
C3175      C3176   1.351       .  D
C3176      H3178   1.087       .  S
C3179      C3180   1.223       .  T
C3181      C3182   1.349   1_455  D
C3182      H3184   1.086       .  S
C3185      C3186   1.218       .  T
C3187      C3188   1.348       .  D
C3188      H3190   1.087   1_455  S
C3191      C3192   1.355       .  D
C3191      H3193   1.087   1_455  S
C3195      C3196   1.348   1_455  D
C3199      C3200   1.219       .  T
C3201      C3202   1.225       .  T
C3203      C3204   1.213       .  T
C3205      C3206   1.357       .  D
C3205      H3207   1.087       .  S
C3206      H3208   1.086       .  S
C3209      C3210   1.356       .  D
C3209      H3211   1.089       .  S
C3210      H3212   1.089       .  S
C3213      C3214   1.222       .  T
C3215      C3216   1.349       .  D
C3216      H3218   1.087       .  S
C3219      C3220   1.348       .  D
C3220      H3222   1.087       .  S
C3223      C3224   1.218       .  T
C3225      C3226   1.354       .  D
C3225      H3227   1.086       .  S
C3226      H3228   1.086       .  S
C3229      C3230   1.222       .  T
C3231      C3232   1.356       .  D
C3231      H3233   1.087       .  S
C3232      H3234   1.086       .  S
C3235      C3236   1.351       .  D
C3235      H3237   1.087       .  S
C3236      H3238   1.086       .  S
C3239      C3240   1.350       .  D
C3240      H3242   1.087       .  S
C3243      C3244   1.223       .  T
C3245      C3246   1.350       .  D
C3245      H3247   1.086   1_455  S
C3249      C3250   1.222       .  T
C3251      C3252   1.353   1_655  D
C3251      H3253   1.087       .  S
C3255      C3256   1.355       .  D
C3256      H3258   1.087   1_455  S
C3259      C3260   1.343       .  D
C3259      H3261   1.087       .  S
C3263      C3264   1.218       .  T
