geometry optimzed in LAMMPS
_audit_creation_date              2020-11-30 
_audit_creation_method            'lammps2cif' 
_symmetry_space_group_name_H-M    'P1' 
_symmetry_Int_Tables_number       1 
_symmetry_cell_setting            triclinic 
loop_ 
_symmetry_equiv_pos_as_xyz 
  x,y,z 
_cell_length_a                    36.01922542 
_cell_length_b                    35.980218248227594 
_cell_length_c                    34.525791492278735 
_cell_angle_alpha                 89.83884352454088 
_cell_angle_beta                  89.99213895031052 
_cell_angle_gamma                 120.0144188621322 
loop_ 
_atom_site_label 
_atom_site_type_symbol 
_atom_site_fract_x 
_atom_site_fract_y 
_atom_site_fract_z 
_atom_site_charge 
C1          C  0.49804001  0.99990990  0.78719164     0.45700
H2          H  0.49799448  0.00019228  0.81938576    -0.03300
C3          C  0.99794763  0.49913615  0.71185101     0.45700
H4          H  0.99784266  0.49876006  0.67966076    -0.03300
C5          C  0.45879931  0.46077881  0.76971887    -0.17000
C6          C  0.49830557  0.03900931  0.76883047    -0.16800
C7          C  0.03697284  0.49934956  0.76955049    -0.17200
C8          C  0.45846754  0.46057440  0.73004394    -0.17100
C9          C  0.99885122  0.03892497  0.72914020    -0.16700
C10         C  0.03665625  0.99844337  0.72982231    -0.17000
O11         O  0.24174977  0.13395346  0.05005197    -0.78300
C12         C  0.24772477  0.07542208  0.93972756     0.82800
O13         O  0.36150672  0.10306342  0.04992918    -0.79400
O14         O  0.38812305  0.17141992  0.91986880    -0.80900
O15         O  0.33149862  0.25295092  0.97627560    -0.80700
O16         O  0.28426334  0.20496244  0.05368343    -0.79300
Zn17       Zn  0.27822696  0.11520002  0.02002317     1.55700
O18         O  0.32361261  0.21613851  0.92183110    -0.80700
Cd19       Cd  0.33635640  0.21775400  0.02082748     1.59700
Cd20       Cd  0.38039658  0.15959671  0.01942416     1.59600
O21         O  0.39235147  0.25444750  0.05243716    -0.80700
O22         O  0.33050807  0.16351967  0.99998746    -1.91200
Cd23       Cd  0.33003626  0.16418070  0.94126830     1.59900
O24         O  0.42017520  0.21131575  0.05310506    -0.80600
O25         O  0.27800256  0.10634112  0.92080304    -0.79300
C26         C  0.32397665  0.07414636  0.06012883     0.83200
C27         C  0.24898895  0.17092705  0.06061757     0.82900
O28         O  0.24449193  0.07651581  0.97634317    -0.78200
C29         C  0.32495506  0.24773108  0.93996373     0.83700
O30         O  0.29084764  0.07670480  0.05225854    -0.78300
C31         C  0.42179807  0.24638226  0.06195457     0.83800
C32         C  0.41964612  0.17185335  0.93736293     0.84200
O33         O  0.41962329  0.16600141  0.97373817    -0.80800
C34         C  0.33418959  0.33333797  0.87364104     0.80400
N35         N  0.30262826  0.33999451  0.88800289    -0.77900
C36         C  0.27828364  0.31618880  0.91841051     0.82900
N37         N  0.28600292  0.28634877  0.93460060    -0.77800
C38         C  0.31604616  0.27830498  0.91971305     0.83000
N39         N  0.34038791  0.30207079  0.88944507    -0.79500
O40         O  0.16432670  0.41785712  0.97530775    -0.78300
C41         C  0.07577452  0.32287592  0.06172762     0.82800
O42         O  0.25446680  0.39008851  0.05198543    -0.79400
O43         O  0.13319597  0.23826513  0.04786953    -0.80900
O44         O  0.10650203  0.28009703  0.91834449    -0.80700
O45         O  0.17051135  0.38963545  0.91977294    -0.79300
Zn46       Zn  0.15993452  0.37932153  0.01938132     1.55700
O47         O  0.07474977  0.24428397  0.97266980    -0.80700
Cd48       Cd  0.16459707  0.33149006  0.93971188     1.59700
Cd49       Cd  0.21731453  0.33506128  0.01955207     1.59600
O50         O  0.21693718  0.32561298  0.91968540    -0.80700
O51         O  0.16407491  0.33141592  0.99865793    -1.91200
Cd52       Cd  0.11483411  0.27679909  0.01803609     1.59900
O53         O  0.25210720  0.33070650  0.97463758    -0.80600
O54         O  0.07664947  0.28900094  0.05316879    -0.79300
C55         C  0.24630181  0.41952963  0.06113909     0.83200
C56         C  0.16976565  0.41974960  0.93873845     0.82900
O57         O  0.10521473  0.36007911  0.05105566    -0.78200
C58         C  0.07473415  0.24944518  0.93616985     0.83700
O59         O  0.21135839  0.41776652  0.05155954    -0.78300
C60         C  0.24779679  0.32564864  0.93812305     0.83800
C61         C  0.17029246  0.24642038  0.05885784     0.84200
O62         O  0.20387956  0.28213498  0.05196802    -0.80800
C63         C  0.15580983  0.15467658  0.11933103     0.80400
N64         N  0.14936636  0.18611612  0.10437318    -0.77900
C65         C  0.17624217  0.21295651  0.07673290     0.82900
N66         N  0.20916596  0.20825305  0.06410308    -0.77800
C67         C  0.21481413  0.17615104  0.07762092     0.83000
N68         N  0.18798245  0.14910306  0.10506607    -0.79500
C69         C  0.16241280  0.49848303  0.87358741     0.80400
N70         N  0.19334548  0.03607843  0.88938585    -0.77900
C71         C  0.21663215  0.03565282  0.92008577     0.82900
N72         N  0.20833497  0.49754309  0.93545213    -0.77800
C73         C  0.17873098  0.45988855  0.91938364     0.83000
N74         N  0.15553803  0.46031455  0.88847312    -0.79500
C75         C  0.49904466  0.33939303  0.12095212     0.80400
N76         N  0.03692219  0.34482473  0.10701678    -0.77900
C77         C  0.03668846  0.31705173  0.08031297     0.82900
N78         N  0.49890318  0.28430531  0.06769262    -0.77800
C79         C  0.46121652  0.27956942  0.08015710     0.83000
N80         N  0.46122339  0.30744663  0.10650790    -0.79500
C81         C  0.49644465  0.16634644  0.86901546     0.80400
N82         N  0.03452917  0.19716126  0.88423005    -0.77900
C83         C  0.03486905  0.22005549  0.91562485     0.82900
N84         N  0.49717622  0.21153736  0.93195913    -0.77800
C85         C  0.45917054  0.18215247  0.91641540     0.83000
N86         N  0.45882745  0.15923420  0.88517545    -0.79500
C87         C  0.34038109  0.49719033  0.11876622     0.80400
N88         N  0.30757970  0.45915533  0.10557852    -0.77900
C89         C  0.27936876  0.45906785  0.07936873     0.82900
N90         N  0.28419919  0.49680072  0.06645020    -0.77800
C91         C  0.31754167  0.03462894  0.07831286     0.83000
N92         N  0.34594727  0.03483148  0.10412439    -0.79500
O93         O  0.42107837  0.16917845  0.52623391    -0.78300
C94         C  0.32726495  0.07904738  0.44018724     0.82800
O95         O  0.39448388  0.25803911  0.45004730    -0.79400
O96         O  0.24376515  0.13808644  0.44955594    -0.80900
O97         O  0.28106648  0.10806516  0.58072923    -0.80700
O98         O  0.39152701  0.17357237  0.58164655    -0.79300
Zn99       Zn  0.38232242  0.16298607  0.48221629     1.55700
O100        O  0.24552807  0.07903877  0.52575619    -0.80700
Cd101      Cd  0.33320533  0.16669168  0.56093959     1.59700
Cd102      Cd  0.33861423  0.22128854  0.48168643     1.59600
O103        O  0.32579135  0.21787945  0.58135014    -0.80700
O104        O  0.33435477  0.16749522  0.50204493    -1.91200
Cd105      Cd  0.28052298  0.11907321  0.48113630     1.59900
O106        O  0.33283207  0.25489741  0.52697815    -0.80600
O107        O  0.29345163  0.08058494  0.44726211    -0.79300
C108        C  0.42281459  0.24863908  0.43991055     0.83200
C109        C  0.42248171  0.17433441  0.56276340     0.82900
O110        O  0.36410646  0.10795796  0.45182715    -0.78200
C111        C  0.24993157  0.07767354  0.56222608     0.83700
O112        O  0.42015662  0.21315159  0.44898133    -0.78300
C113        C  0.32626370  0.24923971  0.56331514     0.83800
C114        C  0.25179697  0.17543997  0.43939576     0.84200
O115        O  0.28683431  0.20905185  0.44791614    -0.80800
C116        C  0.33089023  0.33310466  0.62911154     0.80400
N117        N  0.30051417  0.34007628  0.61253954    -0.77900
C118        C  0.27803938  0.31678900  0.58145600     0.82900
N119        N  0.28662746  0.28714963  0.56645956    -0.77800
C120        C  0.31570923  0.27879968  0.58327930     0.83000
N121        N  0.33817689  0.30205883  0.61453582    -0.79500
O122        O  0.13776931  0.24420284  0.45026774    -0.78300
C123        C  0.07803356  0.25189314  0.56015594     0.82800
O124        O  0.10559158  0.36228997  0.44702882    -0.79400
O125        O  0.17302631  0.39220519  0.57766014    -0.80900
O126        O  0.25382071  0.33222706  0.52415362    -0.80700
O127        O  0.20836290  0.28801424  0.44495342    -0.79300
Zn128      Zn  0.11829295  0.28028738  0.47981555     1.55700
O129        O  0.21757368  0.32704871  0.57839585    -0.80700
Cd130      Cd  0.22018718  0.33884819  0.47924216     1.59700
Cd131      Cd  0.16117662  0.38232862  0.47872446     1.59600
O132        O  0.25732462  0.39582293  0.44929093    -0.80700
O133        O  0.16586764  0.33316066  0.49923164    -1.91200
Cd134      Cd  0.16647145  0.33404093  0.55776762     1.59900
O135        O  0.21344101  0.42274152  0.44605612    -0.80600
O136        O  0.10856416  0.28292111  0.57850078    -0.79300
C137        C  0.07697289  0.32439152  0.43768341     0.83200
C138        C  0.17467996  0.25227258  0.43864175     0.82900
O139        O  0.07949614  0.24722165  0.52378268    -0.78200
C140        C  0.24845084  0.32657025  0.56058052     0.83700
O141        O  0.07967156  0.29159990  0.44680378    -0.78300
C142        C  0.24909408  0.42495098  0.43890025     0.83800
C143        C  0.17156724  0.42257325  0.55970003     0.85800
O144        O  0.16507434  0.42160261  0.52339640    -0.80800
C145        C  0.16298519  0.99869652  0.62643193     0.80400
N146        N  0.19482550  0.03697685  0.61222579    -0.77900
C147        C  0.21912806  0.03759690  0.58180840     0.82900
N148        N  0.21104548  0.00008122  0.56545210    -0.77800
C149        C  0.18059632  0.46192060  0.58007681     0.83000
N150        N  0.15622174  0.46123541  0.61028971    -0.79500
C151        C  0.50157650  0.16791607  0.62751968     0.80400
N152        N  0.46339123  0.16117272  0.61314144    -0.77900
C153        C  0.46275439  0.18414977  0.58210812     0.82900
N154        N  0.50028737  0.21339419  0.56537609    -0.77800
C155        C  0.03841614  0.22150075  0.58032345     0.83000
N156        N  0.03901969  0.19837918  0.61111610    -0.79500
C157        C  0.49986887  0.34019015  0.37943048     0.80400
N158        N  0.46203198  0.30836764  0.39399358    -0.77900
C159        C  0.46207595  0.28064922  0.42069784     0.82900
N160        N  0.49974382  0.28492738  0.43283527    -0.77800
C161        C  0.03744930  0.31731157  0.41948217     0.83000
N162        N  0.03753118  0.34519551  0.39306605    -0.79500
C163        C  0.15623415  0.15657056  0.38295030     0.80400
N164        N  0.18949285  0.15203332  0.39604428    -0.77900
C165        C  0.21840278  0.18120254  0.42106925     0.82900
N166        N  0.21391919  0.21452196  0.43290603    -0.77800
C167        C  0.18026044  0.21848351  0.42118204     0.83000
N168        N  0.15111284  0.18928603  0.39645633    -0.79500
C169        C  0.34326214  0.50180767  0.38129400     0.80400
N170        N  0.34936995  0.03987883  0.39542806    -0.77900
C171        C  0.32152131  0.03987590  0.42202322     0.82900
N172        N  0.28807374  0.50222808  0.43426119    -0.77800
C173        C  0.28269046  0.46445822  0.42139618     0.83000
N174        N  0.31041365  0.46421979  0.39514209    -0.79500
C175        C  0.50031316  0.49987268  0.21298725     0.45700
H176        H  0.50162209  0.50074788  0.18080074    -0.03300
C177        C  0.49783999  0.49794696  0.28807112     0.45700
H178        H  0.49671629  0.49695714  0.32027218    -0.03300
C179        C  0.03927674  0.03763470  0.23209874    -0.17000
C180        C  0.46139390  0.50078639  0.22979188    -0.16800
C181        C  0.49834247  0.45970412  0.23028019    -0.17200
C182        C  0.03768151  0.03705180  0.27172121    -0.17100
C183        C  0.45992716  0.49922559  0.26946276    -0.16700
C184        C  0.49785619  0.45918358  0.26991501    -0.17000
C185        C  0.39415505  0.03568119  0.32568423    -0.21100
C186        C  0.37182584  0.50074341  0.35113053    -0.09100
C187        C  0.37652376  0.46434524  0.34706184     0.29700
C188        C  0.40372964  0.46355191  0.31888178    -0.21100
C189        C  0.42622281  0.49849258  0.29394443    -0.09100
C190        C  0.42114017  0.03453800  0.29710430     0.29700
F191        F  0.44381312  0.06927159  0.27392207    -0.19700
H192        H  0.39089231  0.06391833  0.32804184     0.18100
H193        H  0.40821349  0.43597686  0.31714480     0.18100
F194        F  0.35630661  0.43012756  0.37128975    -0.19600
C195        C  0.05527375  0.08910678  0.32494804    -0.21100
C196        C  0.06943957  0.07011068  0.29774193    -0.09100
C197        C  0.11216306  0.07932108  0.29869475     0.29700
C198        C  0.14019693  0.10722871  0.32673102    -0.21100
C199        C  0.12610154  0.12649861  0.35395685    -0.09100
C200        C  0.08326518  0.11729777  0.35267480     0.29700
F201        F  0.06800588  0.13431720  0.37900362    -0.19700
H202        H  0.02201206  0.08156950  0.32497144     0.18100
H203        H  0.17314756  0.11389456  0.32709509     0.18100
F204        F  0.12620274  0.05996672  0.27370203    -0.19600
C205        C  0.46558339  0.35628546  0.32400131    -0.21100
C206        C  0.50023979  0.36984634  0.34974008    -0.09100
C207        C  0.03507352  0.41202371  0.34690411     0.29700
C208        C  0.03443208  0.44026534  0.31967768    -0.21100
C209        C  0.49965856  0.42683732  0.29449122    -0.09100
C210        C  0.46535969  0.38458359  0.29631494     0.29700
F211        F  0.43100541  0.37138873  0.27259257    -0.19700
H212        H  0.43860021  0.32387883  0.32546618     0.18100
H213        H  0.06079528  0.47307172  0.31871011     0.18100
F214        F  0.06892402  0.42666762  0.37146165    -0.19600
C215        C  0.38608143  0.46933002  0.20592701    -0.21100
C216        C  0.42918779  0.50186904  0.20411026    -0.09100
C217        C  0.44259726  0.53299594  0.17471820     0.29700
C218        C  0.41340296  0.53134031  0.14732786    -0.21100
C219        C  0.37048360  0.49817241  0.14828954    -0.09100
C220        C  0.35685626  0.46726732  0.17808788     0.29700
F221        F  0.31531285  0.43549125  0.18060954    -0.19700
H222        H  0.37540548  0.44474447  0.22812621     0.18100
H223        H  0.42462191  0.55561445  0.12480169     0.18100
F224        F  0.48407550  0.56493970  0.17234221    -0.19600
C225        C  0.46509126  0.37798797  0.15059611    -0.21100
C226        C  0.49859430  0.36873270  0.15058370    -0.09100
C227        C  0.03086176  0.38751826  0.17900260     0.29700
C228        C  0.02984051  0.41579292  0.20623626    -0.21100
C229        C  0.49701885  0.42596074  0.20513289    -0.09100
C230        C  0.46449604  0.40662885  0.17732560     0.29700
F231        F  0.43219165  0.41568499  0.17587369    -0.19700
H232        H  0.43980079  0.36385210  0.12919476     0.18100
H233        H  0.05530030  0.43074497  0.22741308     0.18100
F234        F  0.06305939  0.37831069  0.18070252    -0.19600
C235        C  0.12513410  0.08642449  0.15663293    -0.21100
C236        C  0.12823640  0.12653659  0.15078952    -0.09100
C237        C  0.10502659  0.13900630  0.17527141     0.29700
C238        C  0.07815809  0.11099280  0.20397265    -0.21100
C239        C  0.07385484  0.07035657  0.20822404    -0.09100
C240        C  0.09786990  0.05839304  0.18485771     0.29700
F241        F  0.09397219  0.01903293  0.18870054    -0.19700
H242        H  0.14276485  0.07604212  0.13846760     0.18100
H243        H  0.05919108  0.12016233  0.22168240     0.18100
F244        F  0.10791107  0.17791314  0.17136316    -0.19600
C245        C  0.35316291  0.38677853  0.81974110    -0.21100
C246        C  0.36502978  0.36343722  0.84459589    -0.09100
C247        C  0.40766327  0.37163848  0.84339716     0.29700
C248        C  0.43765892  0.40318969  0.81872534    -0.21100
C249        C  0.42575363  0.42651881  0.79431131    -0.09100
C250        C  0.38317543  0.41786296  0.79453742     0.29700
F251        F  0.37105504  0.44049836  0.77144016    -0.19700
H252        H  0.32073650  0.38128872  0.82013001     0.18100
H253        H  0.47045531  0.40966657  0.81880424     0.18100
F254        F  0.42111465  0.35070869  0.86726410    -0.19600
C255        C  0.03137881  0.11513804  0.79151601    -0.21100
C256        C  0.49722595  0.07266932  0.79250899    -0.09100
C257        C  0.46176693  0.06212278  0.81627870     0.29700
C258        C  0.46087454  0.09341470  0.83941650    -0.21100
C259        C  0.49575810  0.13569785  0.83992847    -0.09100
C260        C  0.03089319  0.14646460  0.81521059     0.29700
F261        F  0.06481588  0.18705433  0.81410198    -0.19700
H262        H  0.05878995  0.12374659  0.77297197     0.18100
H263        H  0.43342569  0.08397828  0.85812058     0.18100
F264        F  0.42791412  0.02148372  0.81708101    -0.19600
C265        C  0.12441712  0.03373374  0.84450266    -0.21100
C266        C  0.13262488  0.49938950  0.84435141    -0.09100
C267        C  0.10999100  0.46543024  0.81811291     0.29700
C268        C  0.07966601  0.46597136  0.79296276    -0.21100
C269        C  0.07094157  0.49986268  0.79411356    -0.09100
C270        C  0.09359172  0.03376046  0.82001541     0.29700
F271        F  0.08585988  0.06697556  0.82165396    -0.19700
H272        H  0.14088492  0.06008974  0.86458502     0.18100
H273        H  0.06220594  0.43944627  0.77323156     0.18100
F274        F  0.11705863  0.43177517  0.81677895    -0.19600
C275        C  0.41364214  0.38391761  0.70919300    -0.21100
C276        C  0.42395682  0.42696400  0.70617506    -0.09100
C277        C  0.40191653  0.43827933  0.67954087     0.29700
C278        C  0.37025650  0.40705286  0.65602050    -0.21100
C279        C  0.36064833  0.36408134  0.65793851    -0.09100
C280        C  0.38243394  0.35264813  0.68506387     0.29700
F281        F  0.37373231  0.31144132  0.68815180    -0.19700
H282        H  0.43053400  0.37477269  0.72959123     0.18100
H283        H  0.35437132  0.41693863  0.63519207     0.18100
F284        F  0.41103392  0.47961441  0.67626513    -0.19600
C285        C  0.03391094  0.12575887  0.65294904    -0.21100
C286        C  0.50235451  0.13768816  0.65615155    -0.09100
C287        C  0.47016780  0.11776096  0.68446994     0.29700
C288        C  0.46931436  0.08596036  0.70854067    -0.21100
C289        C  0.50032198  0.07343694  0.70454301    -0.09100
C290        C  0.03270806  0.09366411  0.67661602     0.29700
F291        F  0.06329523  0.08247146  0.67226958    -0.19700
H292        H  0.05879538  0.14025375  0.63111807     0.18100
H293        H  0.44395381  0.07049495  0.72981700     0.18100
F294        F  0.43964451  0.12902125  0.68887732    -0.19600
C295        C  0.08916486  0.96405198  0.65423698    -0.21100
C296        C  0.13203160  0.99765168  0.65536511    -0.09100
C297        C  0.14368607  0.53083563  0.68248600     0.29700
C298        C  0.11285839  0.53037553  0.70756952    -0.21100
C299        C  0.06994865  0.99732533  0.70551153    -0.09100
C300        C  0.05832755  0.96410196  0.67871775     0.29700
F301        F  0.01706701  0.93168634  0.67617340    -0.19700
H302        H  0.07909373  0.93830166  0.63343578     0.18100
H303        H  0.12220725  0.55642177  0.72792071     0.18100
F304        F  0.18473951  0.56367455  0.68474617    -0.19600
C305        C  0.49804479  0.49991335  0.78718946     0.45700
H306        H  0.49800006  0.50019837  0.81938356    -0.03300
C307        C  0.99794478  0.99913727  0.71185302     0.45700
H308        H  0.99783929  0.99876249  0.67966275    -0.03300
C309        C  0.45879573  0.96077602  0.76971936    -0.17000
C310        C  0.49831085  0.53901178  0.76882624    -0.16800
C311        C  0.03696953  0.99934920  0.76955235    -0.17200
C312        C  0.45846481  0.96057445  0.73004493    -0.17100
C313        C  0.99885497  0.53892496  0.72913643    -0.16700
C314        C  0.03665830  0.49844187  0.72982071    -0.17000
O315        O  0.24175630  0.63395325  0.05005358    -0.78300
C316        C  0.24772912  0.57541806  0.93972377     0.82800
O317        O  0.36150845  0.60305225  0.04991812    -0.79400
O318        O  0.38813199  0.67141712  0.91986790    -0.80900
O319        O  0.33150708  0.75294773  0.97627476    -0.80700
O320        O  0.28427500  0.70496163  0.05368414    -0.79300
Zn321      Zn  0.27822994  0.61519584  0.02002067     1.55700
O322        O  0.32361625  0.71613275  0.92183076    -0.80700
Cd323      Cd  0.33636646  0.71775074  0.02082670     1.59700
Cd324      Cd  0.38040163  0.65959032  0.01942271     1.59600
O325        O  0.39236196  0.75443996  0.05243918    -0.80700
O326        O  0.33051376  0.66351472  0.99998606    -1.91200
Cd327      Cd  0.33004330  0.66417596  0.94126678     1.59900
O328        O  0.42017638  0.71130029  0.05311493    -0.80600
O329        O  0.27801039  0.60633561  0.92080081    -0.79300
C330        C  0.32397855  0.57413630  0.06011893     0.83200
C331        C  0.24899945  0.67092819  0.06061995     0.82900
O332        O  0.24449281  0.57651266  0.97633910    -0.78200
C333        C  0.32495959  0.74772593  0.93996333     0.83700
O334        O  0.29084984  0.57669712  0.05225283    -0.78300
C335        C  0.42180311  0.74636891  0.06196300     0.83800
C336        C  0.41965666  0.67185441  0.93736281     0.84200
O337        O  0.41963380  0.66600388  0.97373830    -0.80800
C338        C  0.33418541  0.83332690  0.87363651     0.80400
N339        N  0.30262723  0.83998613  0.88800209    -0.77900
C340        C  0.27828730  0.81618484  0.91841361     0.82900
N341        N  0.28600812  0.78634579  0.93460412    -0.77800
C342        C  0.31604800  0.77829874  0.91971300     0.83000
N343        N  0.34038461  0.80206032  0.88944084    -0.79500
O344        O  0.16432004  0.91785720  0.97531415    -0.78300
C345        C  0.07577948  0.82286333  0.06173539     0.82800
O346        O  0.25447458  0.89010297  0.05198415    -0.79400
O347        O  0.13321605  0.73827012  0.04786933    -0.80900
O348        O  0.10651126  0.78010624  0.91834785    -0.80700
O349        O  0.17052017  0.88964423  0.91978003    -0.79300
Zn350      Zn  0.15993538  0.87932145  0.01938643     1.55700
O351        O  0.07476372  0.74428352  0.97267064    -0.80700
Cd352      Cd  0.16460686  0.83149781  0.93971619     1.59700
Cd353      Cd  0.21732553  0.83507011  0.01955643     1.59600
O354        O  0.21694538  0.82561693  0.91969006    -0.80700
O355        O  0.16408387  0.83142046  0.99866193    -1.91200
Cd356      Cd  0.11484717  0.77679897  0.01803732     1.59900
O357        O  0.25211463  0.83070688  0.97464199    -0.80600
O358        O  0.07665820  0.78899106  0.05317352    -0.79300
C359        C  0.24630395  0.91953939  0.06114167     0.83200
C360        C  0.16976471  0.91975352  0.93874536     0.82900
O361        O  0.10521594  0.86006843  0.05106360    -0.78200
C362        C  0.07474594  0.74944969  0.93617163     0.83700
O363        O  0.21135725  0.91777100  0.05156537    -0.78300
C364        C  0.24780308  0.82564819  0.93812745     0.83800
C365        C  0.17031201  0.74643173  0.05886587     0.84200
O366        O  0.20389676  0.78215022  0.05198145    -0.80800
C367        C  0.15583088  0.65469168  0.11934391     0.80400
N368        N  0.14938977  0.68613292  0.10438650    -0.77900
C369        C  0.17626360  0.71296998  0.07674336     0.82900
N370        N  0.20918299  0.70826121  0.06410970    -0.77800
C371        C  0.21482859  0.67615713  0.07762682     0.83000
N372        N  0.18799886  0.64911272  0.10507523    -0.79500
C373        C  0.16240669  0.99848528  0.87359463     0.80400
N374        N  0.19335120  0.53607575  0.88937991    -0.77900
C375        C  0.21663682  0.53564922  0.92008044     0.82900
N376        N  0.20833117  0.99754727  0.93545832    -0.77800
C377        C  0.17872680  0.95989215  0.91939114     0.83000
N378        N  0.15553265  0.96031717  0.88848103    -0.79500
C379        C  0.49905086  0.83937954  0.12096125     0.80400
N380        N  0.03692796  0.84481014  0.10702616    -0.77900
C381        C  0.03669381  0.81703492  0.08032473     0.82900
N382        N  0.49890793  0.78428719  0.06770544    -0.77800
C383        C  0.46122147  0.77955257  0.08016931     0.83000
N384        N  0.46122921  0.80743195  0.10651833    -0.79500
C385        C  0.49645832  0.66635078  0.86901565     0.80400
N386        N  0.03454237  0.69716595  0.88423163    -0.77900
C387        C  0.03488115  0.72005985  0.91562621     0.82900
N388        N  0.49718741  0.71154024  0.93196027    -0.77800
C389        C  0.45918223  0.68215508  0.91641573     0.83000
N390        N  0.45884052  0.65923812  0.88517507    -0.79500
C391        C  0.34037695  0.99719745  0.11877551     0.80400
N392        N  0.30757716  0.95916356  0.10558462    -0.77900
C393        C  0.27936745  0.95907725  0.07937441     0.82900
N394        N  0.28419756  0.99681071  0.06645807    -0.77800
C395        C  0.31754449  0.53461928  0.07830219     0.83000
N396        N  0.34595122  0.53482318  0.10411285    -0.79500
O397        O  0.42106950  0.66917898  0.52623514    -0.78300
C398        C  0.32726244  0.57905053  0.44018602     0.82800
O399        O  0.39447892  0.75803613  0.45003611    -0.79400
O400        O  0.24376103  0.63809073  0.44955087    -0.80900
O401        O  0.28105565  0.60807035  0.58072135    -0.80700
O402        O  0.39151675  0.67357449  0.58164601    -0.79300
Zn403      Zn  0.38231705  0.66298774  0.48221632     1.55700
O404        O  0.24552414  0.57904091  0.52574609    -0.80700
Cd405      Cd  0.33319736  0.66669664  0.56093422     1.59700
Cd406      Cd  0.33861152  0.72129263  0.48167884     1.59600
O407        O  0.32578717  0.71788815  0.58134038    -0.80700
O408        O  0.33434969  0.66749933  0.50204002    -1.91200
Cd409      Cd  0.28051968  0.61907744  0.48112851     1.59900
O410        O  0.33283801  0.75490951  0.52696820    -0.80600
O411        O  0.29344873  0.58058962  0.44725415    -0.79300
C412        C  0.42281090  0.74863579  0.43990492     0.83200
C413        C  0.42247160  0.67433500  0.56276438     0.82900
O414        O  0.36410223  0.60795959  0.45183052    -0.78200
C415        C  0.24992428  0.57767673  0.56221646     0.83700
O416        O  0.42015385  0.71315021  0.44898124    -0.78300
C417        C  0.32626650  0.74925156  0.56330482     0.83800
C418        C  0.25179153  0.67544444  0.43939324     0.84200
O419        O  0.28682901  0.70905643  0.44791292    -0.80800
C420        C  0.33089224  0.83311443  0.62910417     0.80400
N421        N  0.30051440  0.84008470  0.61253408    -0.77900
C422        C  0.27804084  0.81679915  0.58144926     0.82900
N423        N  0.28663130  0.78716263  0.56644992    -0.77800
C424        C  0.31571443  0.77881371  0.58326794     0.83000
N425        N  0.33818101  0.80207113  0.61452545    -0.79500
O426        O  0.13776054  0.74420330  0.45027529    -0.78300
C427        C  0.07802333  0.75189368  0.56015622     0.82800
O428        O  0.10558372  0.86229010  0.44703181    -0.79400
O429        O  0.17301994  0.89220134  0.57766281    -0.80900
O430        O  0.25381900  0.83223853  0.52415021    -0.80700
O431        O  0.20835375  0.78801519  0.44495796    -0.79300
Zn432      Zn  0.11828533  0.78028959  0.47981761     1.55700
O433        O  0.21756833  0.82704800  0.57839321    -0.80700
Cd434      Cd  0.22017919  0.83885165  0.47924098     1.59700
Cd435      Cd  0.16117006  0.88233096  0.47872602     1.59600
O436        O  0.25731309  0.89582065  0.44928214    -0.80700
O437        O  0.16586018  0.83316258  0.49923255    -1.91200
Cd438      Cd  0.16646382  0.83403819  0.55776829     1.59900
O439        O  0.21343248  0.92274280  0.44605330    -0.80600
O440        O  0.10855652  0.78291797  0.57850216    -0.79300
C441        C  0.07696843  0.82439166  0.43768231     0.83200
C442        C  0.17467086  0.75227305  0.43864893     0.82900
O443        O  0.07948441  0.74722550  0.52378241    -0.78200
C444        C  0.24844893  0.82657750  0.56057663     0.83700
O445        O  0.07966898  0.79160081  0.44680050    -0.78300
C446        C  0.24908343  0.92494940  0.43889254     0.83800
C447        C  0.17156367  0.92257168  0.55970435     0.85800
O448        O  0.16507132  0.92160393  0.52340066    -0.80800
C449        C  0.16298107  0.49869751  0.62642307     0.80400
N450        N  0.19481845  0.53697824  0.61221511    -0.77900
C451        C  0.21912137  0.53759931  0.58179791     0.82900
N452        N  0.21104230  0.50008384  0.56544339    -0.77800
C453        C  0.18059644  0.96191856  0.58008352     0.83000
N454        N  0.15622241  0.96123418  0.61029647    -0.79500
C455        C  0.50156673  0.66790851  0.62751391     0.80400
N456        N  0.46338106  0.66116719  0.61313837    -0.77900
C457        C  0.46274385  0.68414961  0.58210949     0.82900
N458        N  0.50027670  0.71339654  0.56537884    -0.77800
C459        C  0.03840607  0.72150051  0.58032357     0.83000
N460        N  0.03900995  0.69837383  0.61111174    -0.79500
C461        C  0.49986491  0.84018714  0.37942799     0.80400
N462        N  0.46202817  0.80836340  0.39398928    -0.77900
C463        C  0.46207216  0.78064418  0.42069211     0.82900
N464        N  0.49974000  0.78492313  0.43283048    -0.77800
C465        C  0.03744559  0.81730967  0.41947934     0.83000
N466        N  0.03752743  0.84519411  0.39306427    -0.79500
C467        C  0.15622608  0.65657558  0.38295381     0.80400
N468        N  0.18948564  0.65203873  0.39604512    -0.77900
C469        C  0.21839552  0.68120649  0.42107082     0.82900
N470        N  0.21391074  0.71452394  0.43291125    -0.77800
C471        C  0.18025076  0.71848450  0.42118965     0.83000
N472        N  0.15110347  0.68928891  0.39646297    -0.79500
C473        C  0.34325662  0.00180205  0.38128850     0.80400
N474        N  0.34937057  0.53988385  0.39542947    -0.77900
C475        C  0.32152176  0.53987914  0.42202525     0.82900
N476        N  0.28806883  0.00222592  0.43425503    -0.77800
C477        C  0.28268040  0.96445533  0.42138685     0.83000
N478        N  0.31040326  0.96421513  0.39513318    -0.79500
C479        C  0.50031145  0.99986454  0.21298573     0.45700
H480        H  0.50161995  0.00073919  0.18079918    -0.03300
C481        C  0.49783722  0.99793991  0.28807003     0.45700
H482        H  0.49671171  0.99694938  0.32027092    -0.03300
C483        C  0.03927835  0.53764284  0.23209979    -0.17000
C484        C  0.46139218  0.00077823  0.22979007    -0.16800
C485        C  0.49834164  0.95969710  0.23027920    -0.17200
C486        C  0.03768272  0.53705920  0.27172192    -0.17100
C487        C  0.45992571  0.99921918  0.26946061    -0.16700
C488        C  0.49785327  0.95917674  0.26991368    -0.17000
C489        C  0.39412404  0.53566779  0.32566332    -0.21100
C490        C  0.37182049  0.00073696  0.35112402    -0.09100
C491        C  0.37648537  0.96432132  0.34702764     0.29700
C492        C  0.40369449  0.96353033  0.31884915    -0.21100
C493        C  0.42622214  0.99849019  0.29393975    -0.09100
C494        C  0.42110667  0.53452234  0.29708187     0.29700
F495        F  0.44374449  0.56923847  0.27387175    -0.19700
H496        H  0.39083382  0.56389045  0.32800025     0.18100
H497        H  0.40815314  0.93594121  0.31709165     0.18100
F498        F  0.35623185  0.93008160  0.37122648    -0.19600
C499        C  0.05526857  0.58911638  0.32494498    -0.21100
C500        C  0.06943895  0.57012013  0.29774146    -0.09100
C501        C  0.11216169  0.57933228  0.29869537     0.29700
C502        C  0.14019530  0.60723983  0.32673274    -0.21100
C503        C  0.12609519  0.62650750  0.35395797    -0.09100
C504        C  0.08326048  0.61730847  0.35267248     0.29700
F505        F  0.06799916  0.63432928  0.37899818    -0.19700
H506        H  0.02201905  0.58158157  0.32496589     0.18100
H507        H  0.17313499  0.61390395  0.32709828     0.18100
F508        F  0.12620465  0.55998046  0.27370306    -0.19600
C509        C  0.46557787  0.85628210  0.32400177    -0.21100
C510        C  0.50023546  0.86984296  0.34973889    -0.09100
C511        C  0.03507035  0.91202020  0.34690244     0.29700
C512        C  0.03442996  0.94026053  0.31967465    -0.21100
C513        C  0.49965558  0.92683152  0.29448918    -0.09100
C514        C  0.46535446  0.88457946  0.29631517     0.29700
F515        F  0.43099846  0.87138613  0.27259522    -0.19700
H516        H  0.43859329  0.82387596  0.32546824     0.18100
H517        H  0.06079415  0.97306665  0.31870558     0.18100
F518        F  0.06892040  0.92666467  0.37146057    -0.19600
C519        C  0.38608140  0.96931813  0.20592164    -0.21100
C520        C  0.42918598  0.00186194  0.20410990    -0.09100
C521        C  0.44259340  0.03299698  0.17472565     0.29700
C522        C  0.41339783  0.03134721  0.14733974    -0.21100
C523        C  0.37047985  0.99817584  0.14829673    -0.09100
C524        C  0.35685542  0.96726005  0.17808576     0.29700
F525        F  0.31531434  0.93547713  0.18060120    -0.19700
H526        H  0.37540774  0.94472582  0.22811422     0.18100
H527        H  0.42461526  0.05562840  0.12481970     0.18100
F528        F  0.48407080  0.06494294  0.17235293    -0.19600
C529        C  0.46508580  0.87796025  0.15061329    -0.21100
C530        C  0.49860178  0.86872361  0.15058970    -0.09100
C531        C  0.03088420  0.88753360  0.17899429     0.29700
C532        C  0.02986097  0.91580917  0.20622591    -0.21100
C533        C  0.49702369  0.92595516  0.20513392    -0.09100
C534        C  0.46448948  0.90660321  0.17733977     0.29700
F535        F  0.43217260  0.91564155  0.17589825    -0.19700
H536        H  0.43978489  0.86380782  0.12922272     0.18100
H537        H  0.05533024  0.93077849  0.22739193     0.18100
F538        F  0.06309897  0.87835016  0.18068157    -0.19600
C539        C  0.12514612  0.58643568  0.15664126    -0.21100
C540        C  0.12825498  0.62655152  0.15080176    -0.09100
C541        C  0.10504598  0.63902210  0.17528353     0.29700
C542        C  0.07816895  0.61100524  0.20397959    -0.21100
C543        C  0.07385845  0.57036499  0.20822594    -0.09100
C544        C  0.09787443  0.55840152  0.18486133     0.29700
F545        F  0.09397208  0.51903915  0.18870142    -0.19700
H546        H  0.14277507  0.57605360  0.13847821     0.18100
H547        H  0.05920471  0.62017506  0.22168759     0.18100
F548        F  0.10793905  0.67793332  0.17138077    -0.19600
C549        C  0.35316278  0.88678443  0.81975006    -0.21100
C550        C  0.36502346  0.86342503  0.84458848    -0.09100
C551        C  0.40765121  0.87161009  0.84337334     0.29700
C552        C  0.43764790  0.90316457  0.81870424    -0.21100
C553        C  0.42574904  0.92651283  0.79430858    -0.09100
C554        C  0.38317601  0.91787191  0.79454879     0.29700
F555        F  0.37106225  0.94052526  0.77146840    -0.19700
H556        H  0.32074127  0.88130761  0.82015088     0.18100
H557        H  0.47044014  0.90962936  0.81877131     0.18100
F558        F  0.42109727  0.85066126  0.86722203    -0.19600
C559        C  0.03140995  0.61513111  0.79153922    -0.21100
C560        C  0.49723385  0.57267418  0.79250232    -0.09100
C561        C  0.46175547  0.56214132  0.81624027     0.29700
C562        C  0.46086702  0.59343479  0.83937918    -0.21100
C563        C  0.49577308  0.63570519  0.83992429    -0.09100
C564        C  0.03092824  0.64645857  0.81523551     0.29700
F565        F  0.06487537  0.68703528  0.81415791    -0.19700
H566        H  0.05883510  0.62372860  0.77301852     0.18100
H567        H  0.43340099  0.58400746  0.85805875     0.18100
F568        F  0.42788057  0.52151403  0.81701031    -0.19600
C569        C  0.12442306  0.53373214  0.84449794    -0.21100
C570        C  0.13261936  0.99939132  0.84435767    -0.09100
C571        C  0.10998759  0.96543235  0.81811848     0.29700
C572        C  0.07966365  0.96597298  0.79296674    -0.21100
C573        C  0.07093832  0.99986364  0.79411621    -0.09100
C574        C  0.09359644  0.53375911  0.82001260     0.29700
F575        F  0.08586511  0.56697437  0.82165298    -0.19700
H576        H  0.14089178  0.56008772  0.86457992     0.18100
H577        H  0.06220473  0.93944753  0.77323491     0.18100
F578        F  0.11705665  0.93177821  0.81678534    -0.19600
C579        C  0.41365723  0.88392392  0.70917590    -0.21100
C580        C  0.42395321  0.92696569  0.70617660    -0.09100
C581        C  0.40189316  0.93827800  0.67956235     0.29700
C582        C  0.37023410  0.90705305  0.65603989    -0.21100
C583        C  0.36064666  0.86408682  0.65793635    -0.09100
C584        C  0.38245013  0.85265648  0.68504488     0.29700
F585        F  0.37376833  0.81145467  0.68811375    -0.19700
H586        H  0.43056338  0.87478185  0.72956043     0.18100
H587        H  0.35433397  0.91693710  0.63522603     0.18100
F588        F  0.41099124  0.97960868  0.67630784    -0.19600
C589        C  0.03390408  0.62575150  0.65293912    -0.21100
C590        C  0.50234624  0.63767941  0.65614341    -0.09100
C591        C  0.47016249  0.61775327  0.68446429     0.29700
C592        C  0.46931363  0.58595619  0.70853673    -0.21100
C593        C  0.50032289  0.57343508  0.70453829    -0.09100
C594        C  0.03270576  0.59366017  0.67660812     0.29700
F595        F  0.06329392  0.58246904  0.67226049    -0.19700
H596        H  0.05878615  0.64024552  0.63110622     0.18100
H597        H  0.44395485  0.57049122  0.72981435     0.18100
F598        F  0.43963800  0.62901169  0.68887300    -0.19600
C599        C  0.08916618  0.46404320  0.65424225    -0.21100
C600        C  0.13202938  0.49765173  0.65535885    -0.09100
C601        C  0.14369017  0.03082791  0.68250077     0.29700
C602        C  0.11286080  0.03036916  0.70758171    -0.21100
C603        C  0.06994971  0.49732315  0.70551019    -0.09100
C604        C  0.05833013  0.46409188  0.67872561     0.29700
F605        F  0.01707228  0.43166807  0.67619255    -0.19700
H606        H  0.07909625  0.43828643  0.63344774     0.18100
H607        H  0.12221149  0.05640920  0.72793939     0.18100
F608        F  0.18474729  0.06365747  0.68477235    -0.19600
C609        C  0.99804001  0.99990996  0.78719156     0.45700
H610        H  0.99799449  0.00019234  0.81938569    -0.03300
C611        C  0.49794760  0.49913623  0.71185099     0.45700
H612        H  0.49784255  0.49876009  0.67966075    -0.03300
C613        C  0.95879923  0.46077862  0.76971883    -0.17000
C614        C  0.99830551  0.03900934  0.76883040    -0.16800
C615        C  0.53697292  0.49934978  0.76955046    -0.17200
C616        C  0.95846753  0.46057430  0.73004388    -0.17100
C617        C  0.49885132  0.03892495  0.72914027    -0.16700
C618        C  0.53665625  0.99844328  0.72982242    -0.17000
O619        O  0.74174957  0.13395346  0.05005210    -0.78300
C620        C  0.74772457  0.07542188  0.93972767     0.82800
O621        O  0.86150637  0.10306325  0.04992927    -0.79400
O622        O  0.88812289  0.17141973  0.91986890    -0.80900
O623        O  0.83149824  0.25295069  0.97627548    -0.80700
O624        O  0.78426322  0.20496244  0.05368351    -0.79300
Zn625      Zn  0.77822666  0.11519993  0.02002323     1.55700
O626        O  0.82361237  0.21613828  0.92183101    -0.80700
Cd627      Cd  0.83635617  0.21775391  0.02082741     1.59700
Cd628      Cd  0.88039630  0.15959656  0.01942423     1.59600
O629        O  0.89235136  0.25444751  0.05243689    -0.80700
O630        O  0.83050782  0.16351954  0.99998749    -1.91200
Cd631      Cd  0.83003607  0.16418052  0.94126834     1.59900
O632        O  0.92017494  0.21131563  0.05310510    -0.80600
O633        O  0.77800243  0.10634088  0.92080318    -0.79300
C634        C  0.82397628  0.07414618  0.06012889     0.83200
C635        C  0.74898882  0.17092708  0.06061770     0.82900
O636        O  0.74449159  0.07651567  0.97634327    -0.78200
C637        C  0.82495474  0.24773082  0.93996361     0.83700
O638        O  0.79084728  0.07670465  0.05225859    -0.78300
C639        C  0.92179790  0.24638223  0.06195441     0.83800
C640        C  0.91964595  0.17185318  0.93736305     0.84200
O641        O  0.91962309  0.16600124  0.97373829    -0.80800
C642        C  0.83418935  0.33333776  0.87364091     0.80400
N643        N  0.80262808  0.33999436  0.88800278    -0.77900
C644        C  0.77828345  0.31618867  0.91841040     0.82900
N645        N  0.78600266  0.28634858  0.93460046    -0.77800
C646        C  0.81604584  0.27830471  0.91971288     0.83000
N647        N  0.84038761  0.30207052  0.88944491    -0.79500
O648        O  0.66432673  0.41785728  0.97530786    -0.78300
C649        C  0.57577464  0.32287605  0.06172778     0.82800
O650        O  0.75446690  0.39008855  0.05198535    -0.79400
O651        O  0.63319596  0.23826525  0.04786965    -0.80900
O652        O  0.60650212  0.28009723  0.91834452    -0.80700
O653        O  0.67051137  0.38963561  0.91977304    -0.79300
Zn654      Zn  0.65993461  0.37932167  0.01938143     1.55700
O655        O  0.57474986  0.24428408  0.97266979    -0.80700
Cd656      Cd  0.66459711  0.33149024  0.93971194     1.59700
Cd657      Cd  0.71731455  0.33506131  0.01955206     1.59600
O658        O  0.71693717  0.32561312  0.91968538    -0.80700
O659        O  0.66407496  0.33141604  0.99865799    -1.91200
Cd660      Cd  0.61483416  0.27679920  0.01803612     1.59900
O661        O  0.75210709  0.33070637  0.97463753    -0.80600
O662        O  0.57664954  0.28900109  0.05316881    -0.79300
C663        C  0.74630197  0.41952970  0.06113905     0.83200
C664        C  0.66976566  0.41974975  0.93873856     0.82900
O665        O  0.60521488  0.36007926  0.05105589    -0.78200
C666        C  0.57473427  0.24944533  0.93616984     0.83700
O667        O  0.71135855  0.41776663  0.05155958    -0.78300
C668        C  0.74779670  0.32564860  0.93812299     0.83800
C669        C  0.67029244  0.24642049  0.05885798     0.84200
O670        O  0.70387955  0.28213507  0.05196811    -0.80800
C671        C  0.65580971  0.15467665  0.11933116     0.80400
N672        N  0.64936627  0.18611622  0.10437334    -0.77900
C673        C  0.67624213  0.21295664  0.07673309     0.82900
N674        N  0.70916592  0.20825317  0.06410329    -0.77800
C675        C  0.71481405  0.17615113  0.07762110     0.83000
N676        N  0.68798233  0.14910313  0.10506621    -0.79500
C677        C  0.66241281  0.49848317  0.87358749     0.80400
N678        N  0.69334540  0.03607826  0.88938591    -0.77900
C679        C  0.71663203  0.03565263  0.92008585     0.82900
N680        N  0.70833508  0.49754323  0.93545214    -0.77800
C681        C  0.67873099  0.45988870  0.91938373     0.83000
N682        N  0.65553800  0.46031469  0.88847325    -0.79500
C683        C  0.99904457  0.33939312  0.12095177     0.80400
N684        N  0.53692229  0.34482474  0.10701707    -0.77900
C685        C  0.53668859  0.31705181  0.08031319     0.82900
N686        N  0.99890303  0.28430523  0.06769242    -0.77800
C687        C  0.96121639  0.27956942  0.08015686     0.83000
N688        N  0.96122329  0.30744673  0.10650758    -0.79500
C689        C  0.99644446  0.16634635  0.86901547     0.80400
N690        N  0.53452935  0.19716135  0.88423005    -0.77900
C691        C  0.53486920  0.22005564  0.91562480     0.82900
N692        N  0.99717607  0.21153716  0.93195924    -0.77800
C693        C  0.95917038  0.18215228  0.91641552     0.83000
N694        N  0.95882727  0.15923407  0.88517552    -0.79500
C695        C  0.84038134  0.49719026  0.11876612     0.80400
N696        N  0.80757990  0.45915529  0.10557843    -0.77900
C697        C  0.77936899  0.45906788  0.07936865     0.82900
N698        N  0.78419951  0.49680078  0.06645011    -0.77800
C699        C  0.81754129  0.03462876  0.07831292     0.83000
N700        N  0.84594689  0.03483133  0.10412446    -0.79500
O701        O  0.92107821  0.16917853  0.52623408    -0.78300
C702        C  0.82726495  0.07904732  0.44018736     0.82800
O703        O  0.89448375  0.25803898  0.45004731    -0.79400
O704        O  0.74376505  0.13808637  0.44955598    -0.80900
O705        O  0.78106622  0.10806504  0.58072925    -0.80700
O706        O  0.89152675  0.17357237  0.58164668    -0.79300
Zn707      Zn  0.88232229  0.16298600  0.48221642     1.55700
O708        O  0.74552794  0.07903866  0.52575615    -0.80700
Cd709      Cd  0.83320507  0.16669157  0.56093964     1.59700
Cd710      Cd  0.83861412  0.22128845  0.48168647     1.59600
O711        O  0.82579102  0.21787930  0.58135013    -0.80700
O712        O  0.83435461  0.16749513  0.50204499    -1.91200
Cd713      Cd  0.78052288  0.11907312  0.48113630     1.59900
O714        O  0.83283200  0.25489736  0.52697815    -0.80600
O715        O  0.79345162  0.08058491  0.44726211    -0.79300
C716        C  0.92281445  0.24863893  0.43991059     0.83200
C717        C  0.92248152  0.17433450  0.56276356     0.82900
O718        O  0.86410642  0.10795787  0.45182737    -0.78200
C719        C  0.74993136  0.07767342  0.56222604     0.83700
O720        O  0.92015647  0.21315145  0.44898142    -0.78300
C721        C  0.82626350  0.24923961  0.56331512     0.83800
C722        C  0.75179686  0.17543992  0.43939585     0.84200
O723        O  0.78683420  0.20905179  0.44791623    -0.80800
C724        C  0.83089029  0.33310477  0.62911134     0.80400
N725        N  0.80051429  0.34007644  0.61253933    -0.77900
C726        C  0.77803941  0.31678911  0.58145585     0.82900
N727        N  0.78662736  0.28714961  0.56645948    -0.77800
C728        C  0.81570909  0.27879963  0.58327924     0.83000
N729        N  0.83817683  0.30205884  0.61453569    -0.79500
O730        O  0.63776935  0.24420299  0.45026762    -0.78300
C731        C  0.57803374  0.25189316  0.56015581     0.82800
O732        O  0.60559174  0.36229019  0.44702875    -0.79400
O733        O  0.67302639  0.39220529  0.57766008    -0.80900
O734        O  0.75382078  0.33222719  0.52415346    -0.80700
O735        O  0.70836296  0.28801433  0.44495330    -0.79300
Zn736      Zn  0.61829306  0.28028756  0.47981543     1.55700
O737        O  0.71757376  0.32704886  0.57839570    -0.80700
Cd738      Cd  0.72018726  0.33884832  0.47924200     1.59700
Cd739      Cd  0.66117675  0.38232881  0.47872441     1.59600
O740        O  0.75732473  0.39582312  0.44929082    -0.80700
O741        O  0.66586776  0.33316082  0.49923154    -1.91200
Cd742      Cd  0.66647154  0.33404106  0.55776751     1.59900
O743        O  0.71344116  0.42274177  0.44605615    -0.80600
O744        O  0.60856431  0.28292114  0.57850068    -0.79300
C745        C  0.57697302  0.32439174  0.43768335     0.83200
C746        C  0.67467999  0.25227267  0.43864164     0.82900
O747        O  0.57949632  0.24722176  0.52378255    -0.78200
C748        C  0.74845091  0.32657038  0.56058037     0.83700
O749        O  0.57967167  0.29160011  0.44680373    -0.78300
C750        C  0.74909422  0.42495122  0.43890025     0.83800
C751        C  0.67156734  0.42257338  0.55970000     0.85800
O752        O  0.66507444  0.42160277  0.52339636    -0.80800
C753        C  0.66298506  0.99869640  0.62643197     0.80400
N754        N  0.69482535  0.03697672  0.61222579    -0.77900
C755        C  0.71912780  0.03759677  0.58180833     0.82900
N756        N  0.71104515  0.00008110  0.56545195    -0.77800
C757        C  0.68059642  0.46192072  0.58007681     0.83000
N758        N  0.65622173  0.46123552  0.61028962    -0.79500
C759        C  0.00157627  0.16791617  0.62751985     0.80400
N760        N  0.96339101  0.16117287  0.61314163    -0.77900
C761        C  0.96275419  0.18414992  0.58210831     0.82900
N762        N  0.00028717  0.21339430  0.56537626    -0.77800
C763        C  0.53841634  0.22150068  0.58032330     0.83000
N764        N  0.53901992  0.19837910  0.61111594    -0.79500
C765        C  0.99986876  0.34018994  0.37943049     0.80400
N766        N  0.96203186  0.30836746  0.39399361    -0.77900
C767        C  0.96207582  0.28064903  0.42069787     0.82900
N768        N  0.99974368  0.28492718  0.43283531    -0.77800
C769        C  0.53744943  0.31731179  0.41948213     0.83000
N770        N  0.53753129  0.34519574  0.39306602    -0.79500
C771        C  0.65623403  0.15657044  0.38295044     0.80400
N772        N  0.68949271  0.15203321  0.39604443    -0.77900
C773        C  0.71840268  0.18120248  0.42106934     0.82900
N774        N  0.71391915  0.21452197  0.43290603    -0.77800
C775        C  0.68026040  0.21848353  0.42118202     0.83000
N776        N  0.65111275  0.18928597  0.39645638    -0.79500
C777        C  0.84326244  0.50180798  0.38129423     0.80400
N778        N  0.84936998  0.03987878  0.39542819    -0.77900
C779        C  0.82152136  0.03987585  0.42202337     0.82900
N780        N  0.78807383  0.50222835  0.43426117    -0.77800
C781        C  0.78269062  0.46445850  0.42139623     0.83000
N782        N  0.81041394  0.46422009  0.39514227    -0.79500
C783        C  0.00031307  0.49987257  0.21298734     0.45700
H784        H  0.00162199  0.50074788  0.18080080    -0.03300
C785        C  0.99783998  0.49794665  0.28807118     0.45700
H786        H  0.99671636  0.49695677  0.32027227    -0.03300
C787        C  0.53927675  0.03763460  0.23209884    -0.17000
C788        C  0.96139383  0.50078623  0.22979205    -0.16800
C789        C  0.99834239  0.45970396  0.23028012    -0.17200
C790        C  0.53768154  0.03705160  0.27172132    -0.17100
C791        C  0.95992711  0.49922531  0.26946295    -0.16700
C792        C  0.99785617  0.45918332  0.26991495    -0.17000
C793        C  0.89415580  0.03568172  0.32568486    -0.21100
C794        C  0.87182623  0.50074369  0.35113094    -0.09100
C795        C  0.87652541  0.46434615  0.34706350     0.29700
C796        C  0.90373105  0.46355254  0.31888337    -0.21100
C797        C  0.92622285  0.49849233  0.29394479    -0.09100
C798        C  0.92114093  0.03453860  0.29710487     0.29700
F799        F  0.94381467  0.06927265  0.27392333    -0.19700
H800        H  0.89089375  0.06391910  0.32804304     0.18100
H801        H  0.90821582  0.43597796  0.31714728     0.18100
F802        F  0.85630974  0.43012949  0.37129272    -0.19600
C803        C  0.55527346  0.08910614  0.32494850    -0.21100
C804        C  0.56943955  0.07011048  0.29774210    -0.09100
C805        C  0.61216315  0.07932133  0.29869464     0.29700
C806        C  0.64019710  0.10722900  0.32673092    -0.21100
C807        C  0.62610141  0.12649846  0.35395702    -0.09100
C808        C  0.58326497  0.11729718  0.35267527     0.29700
F809        F  0.56800550  0.13431618  0.37900437    -0.19700
H810        H  0.52201223  0.08156865  0.32497211     0.18100
H811        H  0.67314726  0.11389509  0.32709477     0.18100
F812        F  0.62620307  0.05996741  0.27370165    -0.19600
C813        C  0.96558325  0.35628529  0.32400137    -0.21100
C814        C  0.00023969  0.36984609  0.34974005    -0.09100
C815        C  0.53507351  0.41202402  0.34690428     0.29700
C816        C  0.53443203  0.44026568  0.31967791    -0.21100
C817        C  0.99965854  0.42683702  0.29449109    -0.09100
C818        C  0.96535955  0.38458335  0.29631496     0.29700
F819        F  0.93100519  0.37138857  0.27259271    -0.19700
H820        H  0.93859984  0.32387854  0.32546637     0.18100
H821        H  0.56079515  0.47307210  0.31871043     0.18100
F822        F  0.56892395  0.42666795  0.37146189    -0.19600
C823        C  0.88608142  0.46932982  0.20592704    -0.21100
C824        C  0.92918775  0.50186893  0.20411044    -0.09100
C825        C  0.94259729  0.53299586  0.17471842     0.29700
C826        C  0.91340309  0.53134025  0.14732795    -0.21100
C827        C  0.87048376  0.49817226  0.14828950    -0.09100
C828        C  0.85685636  0.46726709  0.17808777     0.29700
F829        F  0.81531298  0.43549088  0.18060923    -0.19700
H830        H  0.87540545  0.44474425  0.22812617     0.18100
H831        H  0.92462206  0.55561433  0.12480192     0.18100
F832        F  0.98407552  0.56493965  0.17234252    -0.19600
C833        C  0.96509151  0.37798849  0.15059549    -0.21100
C834        C  0.99859424  0.36873280  0.15058332    -0.09100
C835        C  0.53086209  0.38751860  0.17900268     0.29700
C836        C  0.52984091  0.41579339  0.20623629    -0.21100
C837        C  0.99701876  0.42596067  0.20513269    -0.09100
C838        C  0.96449624  0.40662927  0.17732503     0.29700
F839        F  0.93219214  0.41568581  0.17587286    -0.19700
H840        H  0.93980113  0.36385289  0.12919376     0.18100
H841        H  0.55530069  0.43074565  0.22741269     0.18100
F842        F  0.56305999  0.37831142  0.18070240    -0.19600
C843        C  0.62513380  0.08642443  0.15663282    -0.21100
C844        C  0.62823624  0.12653659  0.15078959    -0.09100
C845        C  0.60502656  0.13900633  0.17527164     0.29700
C846        C  0.57815813  0.11099279  0.20397292    -0.21100
C847        C  0.57385481  0.07035651  0.20822414    -0.09100
C848        C  0.59786968  0.05839294  0.18485760     0.29700
F849        F  0.59397184  0.01903276  0.18870023    -0.19700
H850        H  0.64276450  0.07604198  0.13846727     0.18100
H851        H  0.55919124  0.12016233  0.22168279     0.18100
F852        F  0.60791113  0.17791322  0.17136354    -0.19600
C853        C  0.85316263  0.38677792  0.81974063    -0.21100
C854        C  0.86502959  0.36343703  0.84459581    -0.09100
C855        C  0.90766325  0.37163872  0.84339755     0.29700
C856        C  0.93765888  0.40318990  0.81872571    -0.21100
C857        C  0.92575351  0.42651859  0.79431124    -0.09100
C858        C  0.88317516  0.41786236  0.79453697     0.29700
F859        F  0.87105466  0.44049741  0.77143936    -0.19700
H860        H  0.82073598  0.38128778  0.82012922     0.18100
H861        H  0.97045556  0.40966713  0.81880496     0.18100
F862        F  0.92111474  0.35070942  0.86726498    -0.19600
C863        C  0.53137907  0.11513798  0.79151615    -0.21100
C864        C  0.99722584  0.07266934  0.79250892    -0.09100
C865        C  0.96176686  0.06212271  0.81627874     0.29700
C866        C  0.96087446  0.09341461  0.83941653    -0.21100
C867        C  0.99575790  0.13569780  0.83992843    -0.09100
C868        C  0.53089344  0.14646457  0.81521074     0.29700
F869        F  0.56481622  0.18705424  0.81410219    -0.19700
H870        H  0.55879003  0.12374640  0.77297233     0.18100
H871        H  0.93342552  0.08397808  0.85812080     0.18100
F872        F  0.92791416  0.02148360  0.81708115    -0.19600
C873        C  0.62441718  0.03373366  0.84450268    -0.21100
C874        C  0.63262488  0.49938964  0.84435148    -0.09100
C875        C  0.60999075  0.46543022  0.81811315     0.29700
C876        C  0.57966585  0.46597142  0.79296299    -0.21100
C877        C  0.57094163  0.49986286  0.79411354    -0.09100
C878        C  0.59359176  0.03376037  0.82001543     0.29700
F879        F  0.58585997  0.06697551  0.82165397    -0.19700
H880        H  0.64088488  0.06008949  0.86458494     0.18100
H881        H  0.56220544  0.43944597  0.77323174     0.18100
F882        F  0.61705810  0.43177496  0.81677943    -0.19600
C883        C  0.91364201  0.38391753  0.70919297    -0.21100
C884        C  0.92395687  0.42696398  0.70617491    -0.09100
C885        C  0.90191685  0.43827944  0.67954053     0.29700
C886        C  0.87025685  0.40705302  0.65602011    -0.21100
C887        C  0.86064844  0.36408144  0.65793827    -0.09100
C888        C  0.88243381  0.35264811  0.68506376     0.29700
F889        F  0.87373195  0.31144123  0.68815182    -0.19700
H890        H  0.93053357  0.37477256  0.72959120     0.18100
H891        H  0.85437186  0.41693887  0.63519155     0.18100
F892        F  0.91103446  0.47961457  0.67626469    -0.19600
C893        C  0.53391112  0.12575872  0.65294890    -0.21100
C894        C  0.00235427  0.13768820  0.65615165    -0.09100
C895        C  0.97016745  0.11776080  0.68446995     0.29700
C896        C  0.96931408  0.08596020  0.70854057    -0.21100
C897        C  0.00032177  0.07343691  0.70454298    -0.09100
C898        C  0.53270818  0.09366397  0.67661598     0.29700
F899        F  0.56329526  0.08247120  0.67226951    -0.19700
H900        H  0.55879532  0.14025336  0.63111801     0.18100
H901        H  0.94395327  0.07049453  0.72981702     0.18100
F902        F  0.93964405  0.12902094  0.68887728    -0.19600
C903        C  0.58916504  0.96405135  0.65423781    -0.21100
C904        C  0.63203156  0.99765156  0.65536527    -0.09100
C905        C  0.64368615  0.53083541  0.68248622     0.29700
C906        C  0.61285849  0.53037532  0.70756977    -0.21100
C907        C  0.56994868  0.99732526  0.70551172    -0.09100
C908        C  0.55832774  0.96410133  0.67871858     0.29700
F909        F  0.51706737  0.93168521  0.67617488    -0.19700
H910        H  0.57909399  0.93830052  0.63343704     0.18100
H911        H  0.62220746  0.55642128  0.72792120     0.18100
F912        F  0.68473973  0.56367399  0.68474675    -0.19600
C913        C  0.99804471  0.49991312  0.78718948     0.45700
H914        H  0.99799993  0.50019809  0.81938358    -0.03300
C915        C  0.49794485  0.99913722  0.71185310     0.45700
H916        H  0.49783940  0.99876244  0.67966283    -0.03300
C917        C  0.95879574  0.96077607  0.76971930    -0.17000
C918        C  0.99831081  0.53901159  0.76882630    -0.16800
C919        C  0.53696952  0.99934910  0.76955244    -0.17200
C920        C  0.95846477  0.96057448  0.73004488    -0.17100
C921        C  0.49885494  0.53892507  0.72913636    -0.16700
C922        C  0.53665832  0.49844201  0.72982066    -0.17000
O923        O  0.74175668  0.63395324  0.05005356    -0.78300
C924        C  0.74772937  0.57541818  0.93972371     0.82800
O925        O  0.86150888  0.60305233  0.04991810    -0.79400
O926        O  0.88813222  0.67141716  0.91986788    -0.80900
O927        O  0.83150756  0.75294789  0.97627481    -0.80700
O928        O  0.78427529  0.70496164  0.05368404    -0.79300
Zn929      Zn  0.77823033  0.61519589  0.02002063     1.55700
O930        O  0.82361656  0.71613285  0.92183082    -0.80700
Cd931      Cd  0.83636683  0.71775081  0.02082672     1.59700
Cd932      Cd  0.88040201  0.65959042  0.01942272     1.59600
O933        O  0.89236222  0.75443996  0.05243937    -0.80700
O934        O  0.83051412  0.66351479  0.99998606    -1.91200
Cd935      Cd  0.83004357  0.66417603  0.94126678     1.59900
O936        O  0.92017674  0.71130038  0.05311499    -0.80600
O937        O  0.77801062  0.60633574  0.92080074    -0.79300
C938        C  0.82397897  0.57413636  0.06011885     0.83200
C939        C  0.74899977  0.67092818  0.06061988     0.82900
O940        O  0.74449316  0.57651277  0.97633905    -0.78200
C941        C  0.82495999  0.74772607  0.93996339     0.83700
O942        O  0.79085027  0.57669716  0.05225272    -0.78300
C943        C  0.92180339  0.74636894  0.06196317     0.83800
C944        C  0.91965690  0.67185448  0.93736277     0.84200
O945        O  0.91963410  0.66600399  0.97373826    -0.80800
C946        C  0.83418560  0.83332687  0.87363648     0.80400
N947        N  0.80262737  0.83998605  0.88800205    -0.77900
C948        C  0.77828751  0.81618480  0.91841361     0.82900
N949        N  0.78600843  0.78634585  0.93460418    -0.77800
C950        C  0.81604836  0.77829885  0.91971308     0.83000
N951        N  0.84038488  0.80206038  0.88944086    -0.79500
O952        O  0.66432001  0.91785693  0.97531397    -0.78300
C953        C  0.57577927  0.82286312  0.06173518     0.82800
O954        O  0.75447440  0.89010281  0.05198417    -0.79400
O955        O  0.63321609  0.73826991  0.04786926    -0.80900
O956        O  0.60651114  0.78010598  0.91834785    -0.80700
O957        O  0.67052023  0.88964400  0.91977987    -0.79300
Zn958      Zn  0.65993522  0.87932119  0.01938625     1.55700
O959        O  0.57476359  0.74428333  0.97267067    -0.80700
Cd960      Cd  0.66460684  0.83149753  0.93971609     1.59700
Cd961      Cd  0.71732552  0.83506997  0.01955634     1.59600
O962        O  0.71694539  0.82561661  0.91969001    -0.80700
O963        O  0.66408380  0.83142022  0.99866184    -1.91200
Cd964      Cd  0.61484710  0.77679875  0.01803733     1.59900
O965        O  0.75211479  0.83070692  0.97464194    -0.80600
O966        O  0.57665807  0.78899083  0.05317352    -0.79300
C967        C  0.74630370  0.91953919  0.06114167     0.83200
C968        C  0.66976475  0.91975329  0.93874519     0.82900
O969        O  0.60521569  0.86006817  0.05106326    -0.78200
C970        C  0.57474579  0.74944949  0.93617166     0.83700
O971        O  0.71135699  0.91777075  0.05156530    -0.78300
C972        C  0.74780319  0.82564808  0.93812742     0.83800
C973        C  0.67031208  0.74643152  0.05886569     0.84200
O974        O  0.70389681  0.78215001  0.05198122    -0.80800
C975        C  0.65583124  0.65469167  0.11934388     0.80400
N976        N  0.64939002  0.68613281  0.10438640    -0.77900
C977        C  0.67626374  0.71296980  0.07674316     0.82900
N978        N  0.70918315  0.70826105  0.06410949    -0.77800
C979        C  0.71482886  0.67615707  0.07762670     0.83000
N980        N  0.68799923  0.64911273  0.10507519    -0.79500
C981        C  0.66240672  0.99848514  0.87359458     0.80400
N982        N  0.69335131  0.53607590  0.88937991    -0.77900
C983        C  0.71663698  0.53564936  0.92008041     0.82900
N984        N  0.70833112  0.99754706  0.93545831    -0.77800
C985        C  0.67872686  0.95989195  0.91939101     0.83000
N986        N  0.65553273  0.96031701  0.88848089    -0.79500
C987        C  0.99905101  0.83937952  0.12096157     0.80400
N988        N  0.53692778  0.84481006  0.10702587    -0.77900
C989        C  0.53669358  0.81703479  0.08032446     0.82900
N990        N  0.99890818  0.78428730  0.06770569    -0.77800
C991        C  0.96122170  0.77955258  0.08016957     0.83000
N992        N  0.96122938  0.80743190  0.10651863    -0.79500
C993        C  0.99645854  0.66635071  0.86901575     0.80400
N994        N  0.53454214  0.69716593  0.88423159    -0.77900
C995        C  0.53488095  0.72005970  0.91562628     0.82900
N996        N  0.99718761  0.71154042  0.93196016    -0.77800
C997        C  0.95918244  0.68215517  0.91641567     0.83000
N998        N  0.95884075  0.65923809  0.88517511    -0.79500
C999        C  0.84037661  0.99719732  0.11877558     0.80400
N1000       N  0.80757684  0.95916341  0.10558469    -0.77900
C1001       C  0.77936713  0.95907707  0.07937446     0.82900
N1002       N  0.78419720  0.99681051  0.06645811    -0.77800
C1003       C  0.81754488  0.53461931  0.07830207     0.83000
N1004       N  0.84595157  0.53482314  0.10411273    -0.79500
O1005       O  0.92106963  0.66917913  0.52623530    -0.78300
C1006       C  0.82726254  0.57905081  0.44018609     0.82800
O1007       O  0.89447903  0.75803649  0.45003646    -0.79400
O1008       O  0.74376113  0.63809091  0.44955100    -0.80900
O1009       O  0.78105585  0.60807048  0.58072151    -0.80700
O1010       O  0.89151696  0.67357472  0.58164618    -0.79300
Zn1011     Zn  0.88231718  0.66298801  0.48221649     1.55700
O1012       O  0.74552430  0.57904111  0.52574625    -0.80700
Cd1013     Cd  0.83319752  0.66669685  0.56093443     1.59700
Cd1014     Cd  0.83861156  0.72129285  0.48167908     1.59600
O1015       O  0.82578720  0.71788829  0.58134064    -0.80700
O1016       O  0.83434981  0.66749957  0.50204022    -1.91200
Cd1017     Cd  0.78051980  0.61907766  0.48112869     1.59900
O1018       O  0.83283780  0.75490957  0.52696846    -0.80600
O1019       O  0.79344883  0.58058986  0.44725429    -0.79300
C1020       C  0.92281102  0.74863617  0.43990523     0.83200
C1021       C  0.92247177  0.67433516  0.56276454     0.82900
O1022       O  0.86410234  0.60795989  0.45183056    -0.78200
C1023       C  0.74992447  0.57767688  0.56221661     0.83700
O1024       O  0.92015397  0.71315058  0.44898149    -0.78300
C1025       C  0.82626634  0.74925162  0.56330509     0.83800
C1026       C  0.75179166  0.67544461  0.43939330     0.84200
O1027       O  0.78682912  0.70905660  0.44791300    -0.80800
C1028       C  0.83089178  0.83311429  0.62910454     0.80400
N1029       N  0.80051395  0.84008456  0.61253441    -0.77900
C1030       C  0.77804049  0.81679907  0.58144952     0.82900
N1031       N  0.78663104  0.78716260  0.56645017    -0.77800
C1032       C  0.81571414  0.77881369  0.58326824     0.83000
N1033       N  0.83818062  0.80207105  0.61452581    -0.79500
O1034       O  0.63776059  0.74420332  0.45027521    -0.78300
C1035       C  0.57802313  0.75189361  0.56015608     0.82800
O1036       O  0.60558356  0.86228990  0.44703163    -0.79400
O1037       O  0.67301960  0.89220124  0.57766272    -0.80900
O1038       O  0.75381881  0.83223850  0.52415041    -0.80700
O1039       O  0.70835380  0.78801526  0.44495804    -0.79300
Zn1040     Zn  0.61828527  0.78028950  0.47981753     1.55700
O1041       O  0.71756801  0.82704794  0.57839332    -0.80700
Cd1042     Cd  0.72017911  0.83885165  0.47924109     1.59700
Cd1043     Cd  0.66116990  0.88233087  0.47872589     1.59600
O1044       O  0.75731306  0.89582066  0.44928230    -0.80700
O1045       O  0.66586003  0.83316253  0.49923250    -1.91200
Cd1046     Cd  0.66646356  0.83403814  0.55776823     1.59900
O1047       O  0.71343239  0.92274272  0.44605321    -0.80600
O1048       O  0.60855626  0.78291794  0.57850203    -0.79300
C1049       C  0.57696831  0.82439143  0.43768213     0.83200
C1050       C  0.67467095  0.75227313  0.43864891     0.82900
O1051       O  0.57948429  0.74722537  0.52378228    -0.78200
C1052       C  0.74844865  0.82657744  0.56057682     0.83700
O1053       O  0.57966891  0.79160062  0.44680038    -0.78300
C1054       C  0.74908338  0.92494936  0.43889258     0.83800
C1055       C  0.67156336  0.92257157  0.55970422     0.85800
O1056       O  0.66507107  0.92160384  0.52340052    -0.80800
C1057       C  0.66298106  0.49869760  0.62642300     0.80400
N1058       N  0.69481854  0.53697834  0.61221514    -0.77900
C1059       C  0.71912156  0.53759943  0.58179803     0.82900
N1060       N  0.71104251  0.50008397  0.56544348    -0.77800
C1061       C  0.68059612  0.96191845  0.58008338     0.83000
N1062       N  0.65622222  0.96123406  0.61029645    -0.79500
C1063       C  0.00156689  0.66790850  0.62751401     0.80400
N1064       N  0.96338122  0.66116723  0.61313849    -0.77900
C1065       C  0.96274403  0.68414971  0.58210964     0.82900
N1066       N  0.00027689  0.71339665  0.56537901    -0.77800
C1067       C  0.53840588  0.72150044  0.58032342     0.83000
N1068       N  0.53900978  0.69837382  0.61111163    -0.79500
C1069       C  0.99986504  0.84018754  0.37942829     0.80400
N1070       N  0.96202830  0.80836383  0.39398962    -0.77900
C1071       C  0.96207228  0.78064460  0.42069244     0.82900
N1072       N  0.99974012  0.78492349  0.43283075    -0.77800
C1073       C  0.53744548  0.81730936  0.41947911     0.83000
N1074       N  0.53752730  0.84519377  0.39306402    -0.79500
C1075       C  0.65622629  0.65657577  0.38295370     0.80400
N1076       N  0.68948584  0.65203890  0.39604506    -0.77900
C1077       C  0.71839568  0.68120665  0.42107080     0.82900
N1078       N  0.71391087  0.71452409  0.43291123    -0.77800
C1079       C  0.68025091  0.71848465  0.42118959     0.83000
N1080       N  0.65110367  0.68928909  0.39646287    -0.79500
C1081       C  0.84325662  0.00180201  0.38128856     0.80400
N1082       N  0.84937078  0.53988417  0.39542960    -0.77900
C1083       C  0.82152188  0.53987943  0.42202529     0.82900
N1084       N  0.78806885  0.00222587  0.43425515    -0.77800
C1085       C  0.78268039  0.96445529  0.42138693     0.83000
N1086       N  0.81040323  0.96421509  0.39513323    -0.79500
C1087       C  0.00031144  0.99986457  0.21298567     0.45700
H1088       H  0.00161995  0.00073912  0.18079912    -0.03300
C1089       C  0.99783720  0.99794015  0.28806998     0.45700
H1090       H  0.99671167  0.99694972  0.32027088    -0.03300
C1091       C  0.53927844  0.53764299  0.23209969    -0.17000
C1092       C  0.96139214  0.00077827  0.22978994    -0.16800
C1093       C  0.99834168  0.95969721  0.23027928    -0.17200
C1094       C  0.53768277  0.53705945  0.27172182    -0.17100
C1095       C  0.95992568  0.99921934  0.26946048    -0.16700
C1096       C  0.99785329  0.95917695  0.26991376    -0.17000
C1097       C  0.89412309  0.53566716  0.32566260    -0.21100
C1098       C  0.87182043  0.00073695  0.35112395    -0.09100
C1099       C  0.87648448  0.96432088  0.34702676     0.29700
C1100       C  0.90369361  0.96353003  0.31884823    -0.21100
C1101       C  0.92622208  0.99849037  0.29393955    -0.09100
C1102       C  0.92110556  0.53452151  0.29708112     0.29700
F1103       F  0.94374213  0.56923689  0.27386989    -0.19700
H1104       H  0.89083184  0.56388956  0.32799866     0.18100
H1105       H  0.90815169  0.93594031  0.31709012     0.18100
F1106       F  0.85623012  0.93008058  0.37122485    -0.19600
C1107       C  0.55526879  0.58911680  0.32494476    -0.21100
C1108       C  0.56943907  0.57012038  0.29774134    -0.09100
C1109       C  0.61216175  0.57933233  0.29869534     0.29700
C1110       C  0.64019538  0.60723984  0.32673272    -0.21100
C1111       C  0.62609538  0.62650769  0.35395785    -0.09100
C1112       C  0.58326073  0.61730886  0.35267226     0.29700
F1113       F  0.56799949  0.63432985  0.37899785    -0.19700
H1114       H  0.52201933  0.58158215  0.32496561     0.18100
H1115       H  0.67313506  0.61390382  0.32709833     0.18100
F1116       F  0.62620460  0.55998034  0.27370311    -0.19600
C1117       C  0.96557791  0.85628248  0.32400212    -0.21100
C1118       C  0.00023557  0.86984332  0.34973914    -0.09100
C1119       C  0.53507017  0.91201988  0.34690235     0.29700
C1120       C  0.53442983  0.94026025  0.31967458    -0.21100
C1121       C  0.99965563  0.92683180  0.29448935    -0.09100
C1122       C  0.96535445  0.88457977  0.29631548     0.29700
F1123       F  0.93099839  0.87138643  0.27259562    -0.19700
H1124       H  0.93859318  0.82387625  0.32546870     0.18100
H1125       H  0.56079394  0.97306637  0.31870564     0.18100
F1126       F  0.56892010  0.92666436  0.37146062    -0.19600
C1127       C  0.88608126  0.96931823  0.20592172    -0.21100
C1128       C  0.92918591  0.00186192  0.20410974    -0.09100
C1129       C  0.94259328  0.03299676  0.17472536     0.29700
C1130       C  0.91339765  0.03134704  0.14733944    -0.21100
C1131       C  0.87047957  0.99817573  0.14829675    -0.09100
C1132       C  0.85685519  0.96726016  0.17808592     0.29700
F1133       F  0.81531404  0.93547744  0.18060163    -0.19700
H1134       H  0.87540765  0.94472617  0.22811433     0.18100
H1135       H  0.92461484  0.05562764  0.12481970     0.18100
F1136       F  0.98407071  0.06494261  0.17235241    -0.19600
C1137       C  0.96508570  0.87795991  0.15061379    -0.21100
C1138       C  0.99860188  0.86872358  0.15059002    -0.09100
C1139       C  0.53088390  0.88753329  0.17899418     0.29700
C1140       C  0.52986066  0.91580880  0.20622584    -0.21100
C1141       C  0.99702376  0.92595520  0.20513412    -0.09100
C1142       C  0.96448936  0.90660291  0.17734021     0.29700
F1143       F  0.93217228  0.91564097  0.17589884    -0.19700
H1144       H  0.93978460  0.86380720  0.12922336     0.18100
H1145       H  0.55532988  0.93077790  0.22739212     0.18100
F1146       F  0.56309843  0.87834950  0.18068162    -0.19600
C1147       C  0.62514610  0.58643553  0.15664103    -0.21100
C1148       C  0.62825539  0.62655155  0.15080174    -0.09100
C1149       C  0.60504674  0.63902237  0.17528375     0.29700
C1150       C  0.57816961  0.61100549  0.20397970    -0.21100
C1151       C  0.57385862  0.57036505  0.20822582    -0.09100
C1152       C  0.59787432  0.55840136  0.18486101     0.29700
F1153       F  0.59397158  0.51903881  0.18870089    -0.19700
H1154       H  0.64277492  0.57605321  0.13847765     0.18100
H1155       H  0.55920544  0.62017559  0.22168805     0.18100
F1156       F  0.60794032  0.67793384  0.17138126    -0.19600
C1157       C  0.85316304  0.88678475  0.81975031    -0.21100
C1158       C  0.86502355  0.86342496  0.84458836    -0.09100
C1159       C  0.90765118  0.87160964  0.84337278     0.29700
C1160       C  0.93764784  0.90316419  0.81870372    -0.21100
C1161       C  0.92574909  0.92651285  0.79430851    -0.09100
C1162       C  0.88317616  0.91787224  0.79454907     0.29700
F1163       F  0.87106250  0.94052592  0.77146900    -0.19700
H1164       H  0.82074122  0.88130813  0.82015143     0.18100
H1165       H  0.97044008  0.90962872  0.81877047     0.18100
F1166       F  0.92109715  0.85066035  0.86722100    -0.19600
C1167       C  0.53140975  0.61513134  0.79153903    -0.21100
C1168       C  0.99723386  0.57267398  0.79250244    -0.09100
C1169       C  0.96175551  0.56214122  0.81624029     0.29700
C1170       C  0.96086700  0.59343467  0.83937934    -0.21100
C1171       C  0.99577333  0.63570509  0.83992442    -0.09100
C1172       C  0.53092801  0.64645879  0.81523527     0.29700
F1173       F  0.56487502  0.68703557  0.81415762    -0.19700
H1174       H  0.55883519  0.62372900  0.77301808     0.18100
H1175       H  0.93340176  0.58400770  0.85805828     0.18100
F1176       F  0.92788045  0.52151399  0.81701024    -0.19600
C1177       C  0.62442326  0.53373239  0.84449779    -0.21100
C1178       C  0.63261941  0.99939122  0.84435762    -0.09100
C1179       C  0.60998772  0.96543232  0.81811838     0.29700
C1180       C  0.57966370  0.96597291  0.79296668    -0.21100
C1181       C  0.57093834  0.99986356  0.79411626    -0.09100
C1182       C  0.59359669  0.53375943  0.82001245     0.29700
F1183       F  0.58586553  0.56697482  0.82165266    -0.19700
H1184       H  0.64089227  0.56008830  0.86457979     0.18100
H1185       H  0.56220492  0.93944767  0.77323497     0.18100
F1186       F  0.61705688  0.93177825  0.81678511    -0.19600
C1187       C  0.91365708  0.88392394  0.70917595    -0.21100
C1188       C  0.92395308  0.92696570  0.70617664    -0.09100
C1189       C  0.90189284  0.93827795  0.67956255     0.29700
C1190       C  0.87023360  0.90705293  0.65604025    -0.21100
C1191       C  0.86064620  0.86408671  0.65793670    -0.09100
C1192       C  0.88244982  0.85265643  0.68504513     0.29700
F1193       F  0.87376800  0.81145462  0.68811404    -0.19700
H1194       H  0.93056343  0.87478186  0.72956050     0.18100
H1195       H  0.85433337  0.91693693  0.63522652     0.18100
F1196       F  0.91099089  0.97960862  0.67630805    -0.19600
C1197       C  0.53390387  0.62575143  0.65293892    -0.21100
C1198       C  0.00234638  0.63767938  0.65614352    -0.09100
C1199       C  0.97016255  0.61775315  0.68446433     0.29700
C1200       C  0.96931370  0.58595609  0.70853675    -0.21100
C1201       C  0.00032299  0.57343504  0.70453841    -0.09100
C1202       C  0.53270557  0.59366013  0.67660792     0.29700
F1203       F  0.56329367  0.58246893  0.67226020    -0.19700
H1204       H  0.55878589  0.64024541  0.63110592     0.18100
H1205       H  0.94395473  0.57049097  0.72981443     0.18100
F1206       F  0.93963799  0.62901149  0.68887295    -0.19600
C1207       C  0.58916599  0.46404362  0.65424171    -0.21100
C1208       C  0.63202933  0.49765182  0.65535871    -0.09100
C1209       C  0.64368997  0.03082833  0.68250037     0.29700
C1210       C  0.61286060  0.03036951  0.70758125    -0.21100
C1211       C  0.56994969  0.49732324  0.70551010    -0.09100
C1212       C  0.55832996  0.46409230  0.67872511     0.29700
F1213       F  0.51707201  0.43166880  0.67619170    -0.19700
H1214       H  0.57909599  0.43828716  0.63344693     0.18100
H1215       H  0.62221128  0.05641038  0.72793882     0.18100
F1216       F  0.68474687  0.06365841  0.68477131    -0.19600
loop_ 
_geom_bond_atom_site_label_1 
_geom_bond_atom_site_label_2 
_geom_bond_distance 
_geom_bond_site_symmetry_2 
_ccdc_geom_bond_type 
C1            H2   1.112   1_565  S
C1            C6   1.537   1_565  S
C1          C919   1.538       .  S
C1          C309   1.536       .  S
C3            H4   1.111       .  S
C3          C313   1.538       .  S
C3          C616   1.537       .  S
C3          C314   1.538   1_655  S
C5          C305   1.536       .  S
C5            C8   1.370       .  D
C5          C249   1.478       .  S
C6          C617   1.371       .  D
C6          C256   1.480       .  S
C7          C913   1.538   1_455  S
C7          C314   1.372       .  D
C7          C269   1.481       .  S
C8          C611   1.537       .  S
C8          C276   1.479       .  S
C9          C307   1.538   1_545  S
C9          C614   1.371       .  D
C9          C897   1.481   1_655  S
C10         C307   1.538   1_455  S
C10         C311   1.372       .  D
C10         C299   1.481       .  S
O11          C27   1.275       .  A
O11         Zn17   2.036       .  S
C12          O28   1.272       .  A
C12          O25   1.279       .  A
C12          C71   1.471       .  S
O13          C26   1.275       .  A
O13         Cd20   2.077       .  S
O14          C32   1.279       .  A
O14         Cd23   2.108       .  S
O15          C29   1.273       .  A
O15         Cd19   2.052   1_556  S
O16          C27   1.270       .  A
O16         Cd19   2.038       .  S
Zn17         O28   2.002   1_554  S
Zn17         O30   1.996       .  S
Zn17         O22   1.940   1_554  S
O18          C29   1.279       .  A
O18         Cd23   2.103       .  S
Cd19         O21   2.085       .  S
Cd19         O22   1.992   1_554  S
Cd20         O24   2.053       .  S
Cd20         O33   2.052   1_554  S
Cd20         O22   1.988   1_554  S
O21          C31   1.275       .  A
O22         Cd23   2.028       .  S
Cd23         O25   2.109       .  S
O24          C31   1.272       .  A
C26          O30   1.271       .  A
C26          C91   1.461       .  S
C27          C67   1.458       .  S
C29          C38   1.467       .  S
C31          C79   1.465       .  S
C32          O33   1.273       .  A
C32          C85   1.469       .  S
C34         C246   1.484       .  S
C34          N35   1.367       .  A
C34          N39   1.364       .  A
N35          C36   1.359       .  A
C36          C60   1.470       .  S
C36          N37   1.356       .  A
N37          C38   1.354       .  A
C38          N39   1.355       .  A
O40          C56   1.274       .  A
O40         Zn46   2.008   1_556  S
C41          O57   1.276       .  A
C41          O54   1.271       .  A
C41          C77   1.463       .  S
O42          C55   1.274       .  A
O42         Cd49   2.080       .  S
O43          C61   1.274       .  A
O43         Cd52   2.081       .  S
O44          C58   1.280       .  A
O44         Cd48   2.116       .  S
O45          C56   1.279       .  A
O45         Cd48   2.108       .  S
Zn46         O57   2.047       .  S
Zn46         O59   2.006       .  S
Zn46         O51   1.941   1_554  S
O47          C58   1.273       .  A
O47         Cd52   2.056   1_556  S
Cd48         O50   2.116       .  S
Cd48         O51   2.035       .  S
Cd49         O53   2.049   1_554  S
Cd49         O62   2.044       .  S
Cd49         O51   1.991   1_554  S
O50          C60   1.280       .  A
O51         Cd52   1.990   1_556  S
Cd52         O54   2.040       .  S
O53          C60   1.273       .  A
C55          O59   1.272       .  A
C55          C89   1.466       .  S
C56          C73   1.471       .  S
C58          C83   1.473       .  S
C61          O62   1.271       .  A
C61          C65   1.460       .  S
C63         C236   1.476       .  S
C63          N64   1.364       .  A
C63          N68   1.363       .  A
N64          C65   1.356       .  A
C65          N66   1.351       .  A
N66          C67   1.351       .  A
C67          N68   1.354       .  A
C69         C266   1.485       .  S
C69          N74   1.366       .  A
C69         N374   1.366       .  A
N70          C71   1.357       .  A
N70         C373   1.366   1_545  A
C71         N376   1.355   1_545  A
N72          C73   1.356       .  A
N72         C375   1.355       .  A
C73          N74   1.360       .  A
C75         C226   1.478       .  S
C75          N80   1.365       .  A
C75         N684   1.365       .  A
N76          C77   1.358       .  A
N76         C683   1.365   1_455  A
C77         N686   1.352   1_455  A
N78          C79   1.351       .  A
N78         C685   1.352       .  A
C79          N80   1.356       .  A
C81         C259   1.485       .  S
C81          N86   1.366       .  A
C81         N690   1.367       .  A
N82          C83   1.360       .  A
N82         C689   1.367   1_455  A
C83         N692   1.356   1_455  A
N84          C85   1.355       .  A
N84         C691   1.356       .  A
C85          N86   1.356       .  A
C87         C219   1.476       .  S
C87          N88   1.365       .  A
C87         N396   1.362       .  A
N88          C89   1.360       .  A
C89          N90   1.354       .  A
N90         C395   1.353       .  A
C91          N92   1.354       .  A
C91         N394   1.353   1_545  A
N92         C391   1.362   1_545  A
O93         C109   1.273       .  A
O93         Zn99   2.000       .  S
C94         O110   1.275       .  A
C94         O107   1.270       .  A
C94         C171   1.461       .  S
O95         C108   1.274       .  A
O95        Cd102   2.079       .  S
O96         C114   1.273       .  A
O96        Cd105   2.077       .  S
O97         C111   1.280       .  A
O97        Cd101   2.115       .  S
O98         C109   1.280       .  A
O98        Cd101   2.113       .  S
Zn99        O110   2.041       .  S
Zn99        O112   1.990       .  S
Zn99        O104   1.939       .  S
O100        C111   1.273       .  A
O100       Cd105   2.051       .  S
Cd101       O103   2.112       .  S
Cd101       O104   2.034       .  S
Cd102       O106   2.053       .  S
Cd102       O115   2.053       .  S
Cd102       O104   1.990       .  S
O103        C113   1.280       .  A
O104       Cd105   1.986       .  S
Cd105       O107   2.039       .  S
O106        C113   1.273       .  A
C108        O112   1.270       .  A
C108        C159   1.460       .  S
C109        C153   1.471       .  S
C111        C147   1.470       .  S
C113        C120   1.469       .  S
C114        O115   1.272       .  A
C114        C165   1.463       .  S
C116        C279   1.481       .  S
C116        N117   1.364       .  A
C116        N121   1.366       .  A
N117        C118   1.355       .  A
C118        C140   1.467       .  S
C118        N119   1.354       .  A
N119        C120   1.356       .  A
C120        N121   1.359       .  A
O122        C138   1.275       .  A
O122       Zn128   2.034       .  S
C123        O139   1.272       .  A
C123        O136   1.278       .  A
C123        C155   1.467       .  S
O124        C137   1.274       .  A
O124       Cd131   2.070       .  S
O125        C143   1.279       .  A
O125       Cd134   2.103       .  S
O126        C140   1.273       .  A
O126       Cd130   2.053       .  S
O127        C138   1.270       .  A
O127       Cd130   2.040       .  S
Zn128       O139   2.000       .  S
Zn128       O141   1.991       .  S
Zn128       O133   1.937       .  S
O129        C140   1.279       .  A
O129       Cd134   2.103       .  S
Cd130       O132   2.075       .  S
Cd130       O133   1.986       .  S
Cd131       O135   2.045       .  S
Cd131       O144   2.052       .  S
Cd131       O133   1.988       .  S
O132        C142   1.274       .  A
O133       Cd134   2.021       .  S
Cd134       O136   2.098       .  S
O135        C142   1.271       .  A
C137        O141   1.270       .  A
C137        C161   1.458       .  S
C138        C167   1.460       .  S
C142        C173   1.457       .  S
C143        O144   1.272       .  A
C143        C149   1.466       .  S
C145        C296   1.483       .  S
C145        N146   1.367   1_565  A
C145        N454   1.365       .  A
N146        C147   1.360       .  A
C147        N148   1.355       .  A
N148        C453   1.354   1_545  A
C149        N150   1.356       .  A
C149        N452   1.354       .  A
N150        C449   1.365       .  A
C151        C286   1.478       .  S
C151        N152   1.365       .  A
C151        N764   1.363       .  A
N152        C153   1.359       .  A
C153        N154   1.357       .  A
N154        C763   1.356       .  A
C155        N156   1.355       .  A
C155        N762   1.356       .  A
N156        C759   1.363       .  A
C157        C206   1.473       .  S
C157        N158   1.363       .  A
C157        N770   1.360       .  A
N158        C159   1.357       .  A
C159        N160   1.353       .  A
N160        C769   1.352       .  A
C161        N162   1.353       .  A
C161        N768   1.352   1_455  A
N162        C765   1.360   1_455  A
C163        C199   1.477       .  S
C163        N164   1.364       .  A
C163        N168   1.363       .  A
N164        C165   1.358       .  A
C165        N166   1.352       .  A
N166        C167   1.352       .  A
C167        N168   1.355       .  A
C169        C186   1.478       .  S
C169        N174   1.361       .  A
C169        N474   1.366       .  A
N170        C171   1.360       .  A
N170        C473   1.366       .  A
C171        N476   1.352       .  A
N172        C173   1.350       .  A
N172        C475   1.352       .  A
C173        N174   1.352       .  A
C175        H176   1.112       .  S
C175        C181   1.531       .  S
C175        C180   1.533       .  S
C175       C1091   1.533       .  S
C177        H178   1.112       .  S
C177        C183   1.531       .  S
C177        C184   1.531       .  S
C177       C1094   1.528       .  S
C179       C1087   1.533   1_545  S
C179        C182   1.369       .  D
C179        C239   1.464       .  S
C180        C183   1.371       .  D
C180        C216   1.476       .  S
C181        C184   1.368       .  D
C181        C229   1.476       .  S
C182       C1089   1.528   1_445  S
C182        C196   1.475       .  S
C183        C189   1.469       .  S
C184        C209   1.466       .  S
C185        C190   1.400       .  A
C185        C490   1.408       .  A
C185        H192   1.083       .  S
C186        C187   1.409       .  A
C186        C489   1.408       .  A
C187        C188   1.391       .  A
C187        F194   1.358       .  S
C188        C189   1.397       .  A
C188        H193   1.084       .  S
C189        C494   1.402       .  A
C190        C493   1.402   1_545  A
C190        F191   1.357       .  S
C195        C196   1.401       .  A
C195        C200   1.394       .  A
C195        H202   1.088       .  S
C196        C197   1.403       .  A
C197        C198   1.399       .  A
C197        F204   1.357       .  S
C198        C199   1.406       .  A
C198        H203   1.087       .  S
C199        C200   1.408       .  A
C200        F201   1.358       .  S
C205        C206   1.407       .  A
C205        C210   1.398       .  A
C205        H212   1.083       .  S
C206        C815   1.407       .  A
C207        C208   1.391       .  A
C207        C814   1.407       .  A
C207        F214   1.358       .  S
C208        C817   1.398   1_455  A
C208        H213   1.084       .  S
C209        C210   1.401       .  A
C209        C816   1.398       .  A
C210        F211   1.357       .  S
C215        C216   1.402       .  A
C215        C220   1.400       .  A
C215        H222   1.083       .  S
C216        C217   1.403       .  A
C217        C218   1.393       .  A
C217        F224   1.357       .  S
C218        C219   1.403       .  A
C218        H223   1.084       .  S
C219        C220   1.408       .  A
C220        F221   1.357       .  S
C225        C226   1.403       .  A
C225        C230   1.393       .  A
C225        H232   1.083       .  S
C226        C835   1.410       .  A
C227        C228   1.401       .  A
C227        C834   1.410   1_455  A
C227        F234   1.357       .  S
C228        C837   1.402   1_455  A
C228        H233   1.083       .  S
C229        C230   1.402       .  A
C229        C836   1.402       .  A
C230        F231   1.357       .  S
C235        C236   1.405       .  A
C235        C240   1.391       .  A
C235        H242   1.084       .  S
C236        C237   1.411       .  A
C237        C238   1.397       .  A
C237        F244   1.357       .  S
C238        C239   1.398       .  A
C238        H243   1.084       .  S
C239        C240   1.400       .  A
C240        F241   1.358       .  S
C245        C246   1.407       .  A
C245        C250   1.400       .  A
C245        H252   1.083       .  S
C246        C247   1.412       .  A
C247        C248   1.396       .  A
C247        F254   1.357       .  S
C248        C249   1.398       .  A
C248        H253   1.084       .  S
C249        C250   1.404       .  A
C250        F251   1.357       .  S
C255        C260   1.402       .  A
C255        C864   1.403   1_455  A
C255        H262   1.083       .  S
C256        C257   1.401       .  A
C256        C863   1.403       .  A
C257        C258   1.396       .  A
C257        F264   1.357       .  S
C258        C259   1.408       .  A
C258        H263   1.083       .  S
C259        C868   1.410       .  A
C260        C867   1.410   1_455  A
C260        F261   1.357       .  S
C265        C270   1.396       .  A
C265        C570   1.407   1_545  A
C265        H272   1.083       .  S
C266        C267   1.410       .  A
C266        C569   1.407       .  A
C267        C268   1.403       .  A
C267        F274   1.357       .  S
C268        C269   1.404       .  A
C268        H273   1.083       .  S
C269        C574   1.401       .  A
C270        C573   1.401   1_545  A
C270        F271   1.357       .  S
C275        C276   1.404       .  A
C275        C280   1.401       .  A
C275        H282   1.083       .  S
C276        C277   1.401       .  A
C277        C278   1.395       .  A
C277        F284   1.358       .  S
C278        C279   1.407       .  A
C278        H283   1.083       .  S
C279        C280   1.408       .  A
C280        F281   1.357       .  S
C285        C290   1.396       .  A
C285        C894   1.406       .  A
C285        H292   1.083       .  S
C286        C287   1.406       .  A
C286        C893   1.406       .  A
C287        C288   1.400       .  A
C287        F294   1.357       .  S
C288        C289   1.405       .  A
C288        H293   1.083       .  S
C289        C617   1.481       .  S
C289        C898   1.402       .  A
C290        C897   1.402       .  A
C290        F291   1.357       .  S
C295        C296   1.407       .  A
C295        C300   1.396       .  A
C295        H302   1.083       .  S
C296        C601   1.409   1_565  A
C297        C298   1.402       .  A
C297        C600   1.409       .  A
C297        F304   1.357       .  S
C298        C603   1.403       .  A
C298        H303   1.083       .  S
C299        C300   1.402       .  A
C299        C602   1.403   1_565  A
C300        F301   1.358       .  S
C305        H306   1.112       .  S
C305        C615   1.538       .  S
C305        C310   1.537       .  S
C307        H308   1.111       .  S
C307        C920   1.537       .  S
C309        C312   1.370       .  D
C309        C553   1.478       .  S
C310        C921   1.370       .  D
C310        C560   1.480       .  S
C311        C609   1.538   1_455  S
C311        C573   1.481       .  S
C312        C915   1.537       .  S
C312        C580   1.479       .  S
C313        C918   1.370       .  D
C313       C1201   1.481   1_655  S
C314        C603   1.481       .  S
O315        C331   1.275       .  A
O315       Zn321   2.036       .  S
C316        O332   1.272       .  A
C316        O329   1.279       .  A
C316        C375   1.471       .  S
O317        C330   1.275       .  A
O317       Cd324   2.077       .  S
O318        C336   1.279       .  A
O318       Cd327   2.108       .  S
O319        C333   1.273       .  A
O319       Cd323   2.052   1_556  S
O320        C331   1.270       .  A
O320       Cd323   2.038       .  S
Zn321       O332   2.002   1_554  S
Zn321       O334   1.996       .  S
Zn321       O326   1.940   1_554  S
O322        C333   1.279       .  A
O322       Cd327   2.103       .  S
Cd323       O325   2.085       .  S
Cd323       O326   1.992   1_554  S
Cd324       O328   2.053       .  S
Cd324       O337   2.052   1_554  S
Cd324       O326   1.988   1_554  S
O325        C335   1.275       .  A
O326       Cd327   2.028       .  S
Cd327       O329   2.109       .  S
O328        C335   1.272       .  A
C330        O334   1.271       .  A
C330        C395   1.461       .  S
C331        C371   1.458       .  S
C333        C342   1.467       .  S
C335        C383   1.465       .  S
C336        O337   1.273       .  A
C336        C389   1.469       .  S
C338        C550   1.484       .  S
C338        N339   1.367       .  A
C338        N343   1.364       .  A
N339        C340   1.359       .  A
C340        C364   1.470       .  S
C340        N341   1.356       .  A
N341        C342   1.354       .  A
C342        N343   1.355       .  A
O344        C360   1.274       .  A
O344       Zn350   2.008   1_556  S
C345        O361   1.276       .  A
C345        O358   1.271       .  A
C345        C381   1.463       .  S
O346        C359   1.274       .  A
O346       Cd353   2.080       .  S
O347        C365   1.274       .  A
O347       Cd356   2.081       .  S
O348        C362   1.280       .  A
O348       Cd352   2.116       .  S
O349        C360   1.279       .  A
O349       Cd352   2.108       .  S
Zn350       O361   2.047       .  S
Zn350       O363   2.006       .  S
Zn350       O355   1.941   1_554  S
O351        C362   1.273       .  A
O351       Cd356   2.056   1_556  S
Cd352       O354   2.116       .  S
Cd352       O355   2.035       .  S
Cd353       O357   2.049   1_554  S
Cd353       O366   2.044       .  S
Cd353       O355   1.991   1_554  S
O354        C364   1.280       .  A
O355       Cd356   1.990   1_556  S
Cd356       O358   2.040       .  S
O357        C364   1.273       .  A
C359        O363   1.272       .  A
C359        C393   1.466       .  S
C360        C377   1.471       .  S
C362        C387   1.473       .  S
C365        O366   1.271       .  A
C365        C369   1.460       .  S
C367        C540   1.476       .  S
C367        N368   1.364       .  A
C367        N372   1.363       .  A
N368        C369   1.356       .  A
C369        N370   1.351       .  A
N370        C371   1.351       .  A
C371        N372   1.354       .  A
C373        C570   1.485       .  S
C373        N378   1.366       .  A
N374        C375   1.357       .  A
N376        C377   1.356       .  A
C377        N378   1.360       .  A
C379        C530   1.478       .  S
C379        N988   1.365       .  A
C379        N384   1.365       .  A
N380        C987   1.365   1_455  A
N380        C381   1.358       .  A
C381        N990   1.352   1_455  A
N382        C989   1.352       .  A
N382        C383   1.351       .  A
C383        N384   1.356       .  A
C385        C563   1.485       .  S
C385        N994   1.367       .  A
C385        N390   1.366       .  A
N386        C993   1.367   1_455  A
N386        C387   1.360       .  A
C387        N996   1.356   1_455  A
N388        C995   1.356       .  A
N388        C389   1.355       .  A
C389        N390   1.356       .  A
C391        C523   1.476       .  S
C391        N392   1.365       .  A
N392        C393   1.360       .  A
C393        N394   1.354       .  A
C395        N396   1.354       .  A
O397        C413   1.273       .  A
O397       Zn403   2.000       .  S
C398        O414   1.275       .  A
C398        O411   1.270       .  A
C398        C475   1.461       .  S
O399        C412   1.274       .  A
O399       Cd406   2.079       .  S
O400        C418   1.273       .  A
O400       Cd409   2.077       .  S
O401        C415   1.280       .  A
O401       Cd405   2.115       .  S
O402        C413   1.280       .  A
O402       Cd405   2.113       .  S
Zn403       O414   2.040       .  S
Zn403       O416   1.990       .  S
Zn403       O408   1.939       .  S
O404        C415   1.273       .  A
O404       Cd409   2.051       .  S
Cd405       O407   2.112       .  S
Cd405       O408   2.034       .  S
Cd406       O410   2.053       .  S
Cd406       O419   2.053       .  S
Cd406       O408   1.990       .  S
O407        C417   1.280       .  A
O408       Cd409   1.986       .  S
Cd409       O411   2.039       .  S
O410        C417   1.273       .  A
C412        O416   1.270       .  A
C412        C463   1.460       .  S
C413        C457   1.471       .  S
C415        C451   1.470       .  S
C417        C424   1.469       .  S
C418        O419   1.272       .  A
C418        C469   1.463       .  S
C420        C583   1.481       .  S
C420        N421   1.364       .  A
C420        N425   1.366       .  A
N421        C422   1.355       .  A
C422        C444   1.467       .  S
C422        N423   1.354       .  A
N423        C424   1.356       .  A
C424        N425   1.359       .  A
O426        C442   1.275       .  A
O426       Zn432   2.034       .  S
C427        O443   1.272       .  A
C427        O440   1.278       .  A
C427        C459   1.467       .  S
O428        C441   1.274       .  A
O428       Cd435   2.070       .  S
O429        C447   1.279       .  A
O429       Cd438   2.103       .  S
O430        C444   1.273       .  A
O430       Cd434   2.053       .  S
O431        C442   1.270       .  A
O431       Cd434   2.040       .  S
Zn432       O443   2.000       .  S
Zn432       O445   1.991       .  S
Zn432       O437   1.937       .  S
O433        C444   1.279       .  A
O433       Cd438   2.103       .  S
Cd434       O436   2.075       .  S
Cd434       O437   1.986       .  S
Cd435       O439   2.045       .  S
Cd435       O448   2.052       .  S
Cd435       O437   1.988       .  S
O436        C446   1.274       .  A
O437       Cd438   2.021       .  S
Cd438       O440   2.098       .  S
O439        C446   1.271       .  A
C441        O445   1.270       .  A
C441        C465   1.458       .  S
C442        C471   1.460       .  S
C446        C477   1.457       .  S
C447        O448   1.272       .  A
C447        C453   1.466       .  S
C449        C600   1.483       .  S
C449        N450   1.367       .  A
N450        C451   1.360       .  A
C451        N452   1.355       .  A
C453        N454   1.356       .  A
C455        C590   1.478       .  S
C455        N456   1.365       .  A
C455       N1068   1.363       .  A
N456        C457   1.359       .  A
C457        N458   1.357       .  A
N458       C1067   1.356       .  A
C459       N1066   1.356       .  A
C459        N460   1.355       .  A
N460       C1063   1.363       .  A
C461        C510   1.473       .  S
C461        N462   1.363       .  A
C461       N1074   1.360       .  A
N462        C463   1.357       .  A
C463        N464   1.353       .  A
N464       C1073   1.352       .  A
C465       N1072   1.352   1_455  A
C465        N466   1.353       .  A
N466       C1069   1.360   1_455  A
C467        C503   1.477       .  S
C467        N468   1.364       .  A
C467        N472   1.363       .  A
N468        C469   1.358       .  A
C469        N470   1.352       .  A
N470        C471   1.352       .  A
C471        N472   1.355       .  A
C473        C490   1.478       .  S
C473        N478   1.361   1_545  A
N474        C475   1.360       .  A
N476        C477   1.350   1_545  A
C477        N478   1.352       .  A
C479        H480   1.112   1_565  S
C479        C485   1.531       .  S
C479        C484   1.533   1_565  S
C479        C787   1.533   1_565  S
C481        H482   1.112       .  S
C481        C487   1.531       .  S
C481        C790   1.528   1_565  S
C481        C488   1.531       .  S
C483        C783   1.533       .  S
C483        C486   1.369       .  D
C483        C543   1.464       .  S
C484        C487   1.371   1_545  D
C484        C520   1.476       .  S
C485        C488   1.368       .  D
C485        C533   1.476       .  S
C486        C785   1.528   1_455  S
C486        C500   1.475       .  S
C487        C493   1.468       .  S
C488        C513   1.466       .  S
C489        C494   1.400       .  A
C489        H496   1.083       .  S
C490        C491   1.409   1_545  A
C491        C492   1.391       .  A
C491        F498   1.358       .  S
C492        C493   1.397       .  A
C492        H497   1.084       .  S
C494        F495   1.357       .  S
C499        C500   1.401       .  A
C499        C504   1.394       .  A
C499        H506   1.088       .  S
C500        C501   1.403       .  A
C501        C502   1.399       .  A
C501        F508   1.357       .  S
C502        C503   1.406       .  A
C502        H507   1.087       .  S
C503        C504   1.408       .  A
C504        F505   1.358       .  S
C509        C510   1.407       .  A
C509        C514   1.398       .  A
C509        H516   1.083       .  S
C510       C1119   1.407       .  A
C511       C1118   1.407       .  A
C511        C512   1.391       .  A
C511        F518   1.358       .  S
C512       C1121   1.398   1_455  A
C512        H517   1.084       .  S
C513       C1120   1.398       .  A
C513        C514   1.401       .  A
C514        F515   1.357       .  S
C519        C520   1.402   1_565  A
C519        C524   1.400       .  A
C519        H526   1.083       .  S
C520        C521   1.403       .  A
C521        C522   1.393       .  A
C521        F528   1.357       .  S
C522        C523   1.403   1_545  A
C522        H527   1.084       .  S
C523        C524   1.408       .  A
C524        F525   1.357       .  S
C529        C530   1.403       .  A
C529        C534   1.393       .  A
C529        H536   1.083       .  S
C530       C1139   1.410       .  A
C531       C1138   1.410   1_455  A
C531        C532   1.401       .  A
C531        F538   1.357       .  S
C532       C1141   1.402   1_455  A
C532        H537   1.083       .  S
C533       C1140   1.402       .  A
C533        C534   1.402       .  A
C534        F535   1.357       .  S
C539        C540   1.405       .  A
C539        C544   1.391       .  A
C539        H546   1.084       .  S
C540        C541   1.411       .  A
C541        C542   1.397       .  A
C541        F548   1.357       .  S
C542        C543   1.398       .  A
C542        H547   1.084       .  S
C543        C544   1.399       .  A
C544        F545   1.358       .  S
C549        C550   1.407       .  A
C549        C554   1.401       .  A
C549        H556   1.083       .  S
C550        C551   1.412       .  A
C551        C552   1.396       .  A
C551        F558   1.357       .  S
C552        C553   1.398       .  A
C552        H557   1.084       .  S
C553        C554   1.404       .  A
C554        F555   1.357       .  S
C559       C1168   1.403   1_455  A
C559        C564   1.402       .  A
C559        H566   1.083       .  S
C560       C1167   1.403       .  A
C560        C561   1.401       .  A
C561        C562   1.396       .  A
C561        F568   1.357       .  S
C562        C563   1.408       .  A
C562        H567   1.083       .  S
C563       C1172   1.410       .  A
C564       C1171   1.410   1_455  A
C564        F565   1.357       .  S
C569        C574   1.396       .  A
C569        H576   1.083       .  S
C570        C571   1.410       .  A
C571        C572   1.403       .  A
C571        F578   1.357       .  S
C572        C573   1.404       .  A
C572        H577   1.083       .  S
C574        F575   1.357       .  S
C579        C580   1.404       .  A
C579        C584   1.401       .  A
C579        H586   1.083       .  S
C580        C581   1.401       .  A
C581        C582   1.395       .  A
C581        F588   1.358       .  S
C582        C583   1.407       .  A
C582        H587   1.083       .  S
C583        C584   1.408       .  A
C584        F585   1.357       .  S
C589       C1198   1.406       .  A
C589        C594   1.396       .  A
C589        H596   1.083       .  S
C590       C1197   1.406       .  A
C590        C591   1.406       .  A
C591        C592   1.400       .  A
C591        F598   1.357       .  S
C592        C593   1.405       .  A
C592        H597   1.083       .  S
C593        C921   1.481       .  S
C593       C1202   1.402       .  A
C594       C1201   1.402       .  A
C594        F595   1.357       .  S
C599        C600   1.407       .  A
C599        C604   1.396       .  A
C599        H606   1.083       .  S
C601        C602   1.402       .  A
C601        F608   1.357       .  S
C602        H607   1.083       .  S
C603        C604   1.402       .  A
C604        F605   1.358       .  S
C609        H610   1.112   1_565  S
C609        C614   1.537   1_565  S
C609        C917   1.536       .  S
C611        H612   1.111       .  S
C611        C921   1.538       .  S
C611        C922   1.538       .  S
C613        C913   1.536       .  S
C613        C616   1.370       .  D
C613        C857   1.478       .  S
C614        C864   1.480       .  S
C615        C922   1.372       .  D
C615        C877   1.481       .  S
C616        C884   1.479       .  S
C617        C915   1.538   1_545  S
C618        C915   1.538       .  S
C618        C919   1.372       .  D
C618        C907   1.481       .  S
O619        C635   1.275       .  A
O619       Zn625   2.036       .  S
C620        O636   1.272       .  A
C620        O633   1.279       .  A
C620        C679   1.471       .  S
O621        C634   1.275       .  A
O621       Cd628   2.077       .  S
O622        C640   1.279       .  A
O622       Cd631   2.108       .  S
O623        C637   1.273       .  A
O623       Cd627   2.052   1_556  S
O624        C635   1.270       .  A
O624       Cd627   2.038       .  S
Zn625       O636   2.002   1_554  S
Zn625       O638   1.996       .  S
Zn625       O630   1.940   1_554  S
O626        C637   1.279       .  A
O626       Cd631   2.103       .  S
Cd627       O629   2.085       .  S
Cd627       O630   1.992   1_554  S
Cd628       O632   2.053       .  S
Cd628       O641   2.052   1_554  S
Cd628       O630   1.988   1_554  S
O629        C639   1.275       .  A
O630       Cd631   2.028       .  S
Cd631       O633   2.109       .  S
O632        C639   1.272       .  A
C634        O638   1.271       .  A
C634        C699   1.461       .  S
C635        C675   1.458       .  S
C637        C646   1.467       .  S
C639        C687   1.465       .  S
C640        O641   1.273       .  A
C640        C693   1.469       .  S
C642        C854   1.484       .  S
C642        N643   1.367       .  A
C642        N647   1.364       .  A
N643        C644   1.359       .  A
C644        C668   1.470       .  S
C644        N645   1.356       .  A
N645        C646   1.354       .  A
C646        N647   1.355       .  A
O648        C664   1.274       .  A
O648       Zn654   2.008   1_556  S
C649        O665   1.276       .  A
C649        O662   1.271       .  A
C649        C685   1.463       .  S
O650        C663   1.274       .  A
O650       Cd657   2.080       .  S
O651        C669   1.274       .  A
O651       Cd660   2.081       .  S
O652        C666   1.280       .  A
O652       Cd656   2.116       .  S
O653        C664   1.279       .  A
O653       Cd656   2.108       .  S
Zn654       O665   2.047       .  S
Zn654       O667   2.006       .  S
Zn654       O659   1.941   1_554  S
O655        C666   1.273       .  A
O655       Cd660   2.056   1_556  S
Cd656       O658   2.116       .  S
Cd656       O659   2.035       .  S
Cd657       O661   2.049   1_554  S
Cd657       O670   2.044       .  S
Cd657       O659   1.991   1_554  S
O658        C668   1.280       .  A
O659       Cd660   1.990   1_556  S
Cd660       O662   2.040       .  S
O661        C668   1.273       .  A
C663        O667   1.272       .  A
C663        C697   1.466       .  S
C664        C681   1.471       .  S
C666        C691   1.473       .  S
C669        O670   1.271       .  A
C669        C673   1.460       .  S
C671        C844   1.476       .  S
C671        N672   1.364       .  A
C671        N676   1.363       .  A
N672        C673   1.356       .  A
C673        N674   1.351       .  A
N674        C675   1.351       .  A
C675        N676   1.354       .  A
C677        C874   1.485       .  S
C677        N982   1.366       .  A
C677        N682   1.366       .  A
N678        C981   1.366   1_545  A
N678        C679   1.357       .  A
C679        N984   1.355   1_545  A
N680        C983   1.355       .  A
N680        C681   1.356       .  A
C681        N682   1.360       .  A
C683        C834   1.478       .  S
C683        N688   1.365       .  A
N684        C685   1.358       .  A
N686        C687   1.351       .  A
C687        N688   1.356       .  A
C689        C867   1.485       .  S
C689        N694   1.366       .  A
N690        C691   1.360       .  A
N692        C693   1.355       .  A
C693        N694   1.356       .  A
C695        C827   1.476       .  S
C695        N696   1.365       .  A
C695       N1004   1.362       .  A
N696        C697   1.360       .  A
C697        N698   1.354       .  A
N698       C1003   1.353       .  A
C699       N1002   1.353   1_545  A
C699        N700   1.354       .  A
N700        C999   1.362   1_545  A
O701        C717   1.273       .  A
O701       Zn707   2.000       .  S
C702        O718   1.275       .  A
C702        O715   1.270       .  A
C702        C779   1.461       .  S
O703        C716   1.274       .  A
O703       Cd710   2.079       .  S
O704        C722   1.273       .  A
O704       Cd713   2.077       .  S
O705        C719   1.280       .  A
O705       Cd709   2.115       .  S
O706        C717   1.280       .  A
O706       Cd709   2.113       .  S
Zn707       O718   2.041       .  S
Zn707       O720   1.990       .  S
Zn707       O712   1.939       .  S
O708        C719   1.273       .  A
O708       Cd713   2.051       .  S
Cd709       O711   2.112       .  S
Cd709       O712   2.034       .  S
Cd710       O714   2.053       .  S
Cd710       O723   2.053       .  S
Cd710       O712   1.990       .  S
O711        C721   1.280       .  A
O712       Cd713   1.986       .  S
Cd713       O715   2.039       .  S
O714        C721   1.273       .  A
C716        O720   1.270       .  A
C716        C767   1.460       .  S
C717        C761   1.471       .  S
C719        C755   1.470       .  S
C721        C728   1.469       .  S
C722        O723   1.272       .  A
C722        C773   1.463       .  S
C724        C887   1.481       .  S
C724        N725   1.364       .  A
C724        N729   1.366       .  A
N725        C726   1.355       .  A
C726        C748   1.467       .  S
C726        N727   1.354       .  A
N727        C728   1.356       .  A
C728        N729   1.359       .  A
O730        C746   1.275       .  A
O730       Zn736   2.034       .  S
C731        O747   1.272       .  A
C731        O744   1.278       .  A
C731        C763   1.467       .  S
O732        C745   1.274       .  A
O732       Cd739   2.070       .  S
O733        C751   1.279       .  A
O733       Cd742   2.103       .  S
O734        C748   1.273       .  A
O734       Cd738   2.053       .  S
O735        C746   1.270       .  A
O735       Cd738   2.040       .  S
Zn736       O747   2.000       .  S
Zn736       O749   1.991       .  S
Zn736       O741   1.937       .  S
O737        C748   1.279       .  A
O737       Cd742   2.103       .  S
Cd738       O740   2.075       .  S
Cd738       O741   1.986       .  S
Cd739       O743   2.045       .  S
Cd739       O752   2.052       .  S
Cd739       O741   1.988       .  S
O740        C750   1.274       .  A
O741       Cd742   2.021       .  S
Cd742       O744   2.098       .  S
O743        C750   1.271       .  A
C745        O749   1.270       .  A
C745        C769   1.458       .  S
C746        C775   1.460       .  S
C750        C781   1.457       .  S
C751        O752   1.272       .  A
C751        C757   1.466       .  S
C753        C904   1.483       .  S
C753        N754   1.367   1_565  A
C753       N1062   1.365       .  A
N754        C755   1.360       .  A
C755        N756   1.355       .  A
N756       C1061   1.354   1_545  A
C757       N1060   1.354       .  A
C757        N758   1.356       .  A
N758       C1057   1.365       .  A
C759        C894   1.478       .  S
C759        N760   1.365   1_455  A
N760        C761   1.359       .  A
C761        N762   1.357   1_655  A
C763        N764   1.355       .  A
C765        C814   1.473   1_655  S
C765        N766   1.363       .  A
N766        C767   1.357       .  A
C767        N768   1.353       .  A
C769        N770   1.353       .  A
C771        C807   1.477       .  S
C771        N772   1.364       .  A
C771        N776   1.363       .  A
N772        C773   1.358       .  A
C773        N774   1.352       .  A
N774        C775   1.352       .  A
C775        N776   1.355       .  A
C777        C794   1.478       .  S
C777       N1082   1.366       .  A
C777        N782   1.361       .  A
N778       C1081   1.366       .  A
N778        C779   1.360       .  A
C779       N1084   1.352       .  A
N780       C1083   1.352       .  A
N780        C781   1.350       .  A
C781        N782   1.352       .  A
C783        H784   1.112       .  S
C783        C789   1.531   1_455  S
C783        C788   1.533   1_455  S
C785        H786   1.112       .  S
C785        C791   1.531       .  S
C785        C792   1.531       .  S
C787        C790   1.369       .  D
C787        C847   1.464       .  S
C788        C791   1.371       .  D
C788        C824   1.476       .  S
C789        C792   1.368       .  D
C789        C837   1.476       .  S
C790        C804   1.475       .  S
C791        C797   1.469       .  S
C792        C817   1.466       .  S
C793       C1098   1.408       .  A
C793        C798   1.400       .  A
C793        H800   1.083       .  S
C794       C1097   1.408       .  A
C794        C795   1.409       .  A
C795        C796   1.391       .  A
C795        F802   1.358       .  S
C796        C797   1.397       .  A
C796        H801   1.084       .  S
C797       C1102   1.402       .  A
C798       C1101   1.402   1_545  A
C798        F799   1.357       .  S
C803        C804   1.401       .  A
C803        C808   1.394       .  A
C803        H810   1.088       .  S
C804        C805   1.403       .  A
C805        C806   1.399       .  A
C805        F812   1.357       .  S
C806        C807   1.406       .  A
C806        H811   1.087       .  S
C807        C808   1.408       .  A
C808        F809   1.358       .  S
C813        C814   1.407   1_655  A
C813        C818   1.398       .  A
C813        H820   1.083       .  S
C815        C816   1.391       .  A
C815        F822   1.358       .  S
C816        H821   1.084       .  S
C817        C818   1.401       .  A
C818        F819   1.357       .  S
C823        C824   1.402       .  A
C823        C828   1.400       .  A
C823        H830   1.083       .  S
C824        C825   1.403       .  A
C825        C826   1.393       .  A
C825        F832   1.357       .  S
C826        C827   1.403       .  A
C826        H831   1.083       .  S
C827        C828   1.408       .  A
C828        F829   1.357       .  S
C833        C834   1.403       .  A
C833        C838   1.393       .  A
C833        H840   1.083       .  S
C835        C836   1.401       .  A
C835        F842   1.357       .  S
C836        H841   1.083       .  S
C837        C838   1.402       .  A
C838        F839   1.357       .  S
C843        C844   1.405       .  A
C843        C848   1.391       .  A
C843        H850   1.084       .  S
C844        C845   1.411       .  A
C845        C846   1.397       .  A
C845        F852   1.357       .  S
C846        C847   1.398       .  A
C846        H851   1.084       .  S
C847        C848   1.400       .  A
C848        F849   1.358       .  S
C853        C854   1.407       .  A
C853        C858   1.400       .  A
C853        H860   1.083       .  S
C854        C855   1.412       .  A
C855        C856   1.396       .  A
C855        F862   1.357       .  S
C856        C857   1.398       .  A
C856        H861   1.084       .  S
C857        C858   1.404       .  A
C858        F859   1.357       .  S
C863        C868   1.402       .  A
C863        H870   1.083       .  S
C864        C865   1.401       .  A
C865        C866   1.396       .  A
C865        F872   1.357       .  S
C866        C867   1.408       .  A
C866        H871   1.083       .  S
C868        F869   1.357       .  S
C873       C1178   1.407   1_545  A
C873        C878   1.396       .  A
C873        H880   1.083       .  S
C874       C1177   1.407       .  A
C874        C875   1.410       .  A
C875        C876   1.403       .  A
C875        F882   1.357       .  S
C876        C877   1.404       .  A
C876        H881   1.083       .  S
C877       C1182   1.401       .  A
C878       C1181   1.401   1_545  A
C878        F879   1.357       .  S
C883        C884   1.404       .  A
C883        C888   1.401       .  A
C883        H890   1.083       .  S
C884        C885   1.401       .  A
C885        C886   1.395       .  A
C885        F892   1.358       .  S
C886        C887   1.407       .  A
C886        H891   1.083       .  S
C887        C888   1.408       .  A
C888        F889   1.357       .  S
C893        C898   1.396       .  A
C893        H900   1.083       .  S
C894        C895   1.406   1_455  A
C895        C896   1.400       .  A
C895        F902   1.357       .  S
C896        C897   1.405   1_655  A
C896        H901   1.083       .  S
C898        F899   1.357       .  S
C903        C904   1.407       .  A
C903        C908   1.396       .  A
C903        H910   1.083       .  S
C904       C1209   1.409   1_565  A
C905       C1208   1.409       .  A
C905        C906   1.402       .  A
C905        F912   1.357       .  S
C906       C1211   1.403       .  A
C906        H911   1.083       .  S
C907       C1210   1.403   1_565  A
C907        C908   1.402       .  A
C908        F909   1.358       .  S
C913        H914   1.112       .  S
C913        C918   1.537       .  S
C915        H916   1.111       .  S
C917        C920   1.370       .  D
C917       C1161   1.478       .  S
C918       C1168   1.480       .  S
C919       C1181   1.481       .  S
C920       C1188   1.479       .  S
C922       C1211   1.481       .  S
O923        C939   1.275       .  A
O923       Zn929   2.036       .  S
C924        O940   1.272       .  A
C924        O937   1.279       .  A
C924        C983   1.471       .  S
O925        C938   1.275       .  A
O925       Cd932   2.077       .  S
O926        C944   1.279       .  A
O926       Cd935   2.108       .  S
O927        C941   1.273       .  A
O927       Cd931   2.052   1_556  S
O928        C939   1.270       .  A
O928       Cd931   2.038       .  S
Zn929       O940   2.002   1_554  S
Zn929       O942   1.996       .  S
Zn929       O934   1.940   1_554  S
O930        C941   1.279       .  A
O930       Cd935   2.103       .  S
Cd931       O933   2.085       .  S
Cd931       O934   1.992   1_554  S
Cd932       O936   2.053       .  S
Cd932       O945   2.052   1_554  S
Cd932       O934   1.988   1_554  S
O933        C943   1.275       .  A
O934       Cd935   2.028       .  S
Cd935       O937   2.109       .  S
O936        C943   1.272       .  A
C938        O942   1.271       .  A
C938       C1003   1.461       .  S
C939        C979   1.458       .  S
C941        C950   1.467       .  S
C943        C991   1.465       .  S
C944        O945   1.273       .  A
C944        C997   1.469       .  S
C946       C1158   1.484       .  S
C946        N947   1.367       .  A
C946        N951   1.364       .  A
N947        C948   1.359       .  A
C948        C972   1.470       .  S
C948        N949   1.356       .  A
N949        C950   1.354       .  A
C950        N951   1.355       .  A
O952        C968   1.274       .  A
O952       Zn958   2.008   1_556  S
C953        O969   1.276       .  A
C953        O966   1.271       .  A
C953        C989   1.463       .  S
O954        C967   1.274       .  A
O954       Cd961   2.080       .  S
O955        C973   1.274       .  A
O955       Cd964   2.081       .  S
O956        C970   1.280       .  A
O956       Cd960   2.116       .  S
O957        C968   1.279       .  A
O957       Cd960   2.108       .  S
Zn958       O969   2.047       .  S
Zn958       O971   2.006       .  S
Zn958       O963   1.941   1_554  S
O959        C970   1.273       .  A
O959       Cd964   2.056   1_556  S
Cd960       O962   2.116       .  S
Cd960       O963   2.035       .  S
Cd961       O965   2.049   1_554  S
Cd961       O974   2.044       .  S
Cd961       O963   1.991   1_554  S
O962        C972   1.280       .  A
O963       Cd964   1.990   1_556  S
Cd964       O966   2.040       .  S
O965        C972   1.273       .  A
C967        O971   1.272       .  A
C967       C1001   1.466       .  S
C968        C985   1.471       .  S
C970        C995   1.473       .  S
C973        O974   1.271       .  A
C973        C977   1.460       .  S
C975       C1148   1.476       .  S
C975        N976   1.364       .  A
C975        N980   1.363       .  A
N976        C977   1.356       .  A
C977        N978   1.351       .  A
N978        C979   1.351       .  A
C979        N980   1.354       .  A
C981       C1178   1.485       .  S
C981        N986   1.366       .  A
N982        C983   1.357       .  A
N984        C985   1.356       .  A
C985        N986   1.360       .  A
C987       C1138   1.478       .  S
C987        N992   1.365       .  A
N988        C989   1.358       .  A
N990        C991   1.351       .  A
C991        N992   1.356       .  A
C993       C1171   1.485       .  S
C993        N998   1.366       .  A
N994        C995   1.360       .  A
N996        C997   1.355       .  A
C997        N998   1.356       .  A
C999       C1131   1.476       .  S
C999       N1000   1.365       .  A
N1000      C1001   1.360       .  A
C1001      N1002   1.354       .  A
C1003      N1004   1.354       .  A
O1005      C1021   1.273       .  A
O1005     Zn1011   2.000       .  S
C1006      O1022   1.275       .  A
C1006      O1019   1.270       .  A
C1006      C1083   1.461       .  S
O1007      C1020   1.274       .  A
O1007     Cd1014   2.079       .  S
O1008      C1026   1.273       .  A
O1008     Cd1017   2.077       .  S
O1009      C1023   1.280       .  A
O1009     Cd1013   2.115       .  S
O1010      C1021   1.280       .  A
O1010     Cd1013   2.113       .  S
Zn1011     O1022   2.040       .  S
Zn1011     O1024   1.990       .  S
Zn1011     O1016   1.939       .  S
O1012      C1023   1.273       .  A
O1012     Cd1017   2.051       .  S
Cd1013     O1015   2.112       .  S
Cd1013     O1016   2.034       .  S
Cd1014     O1018   2.053       .  S
Cd1014     O1027   2.053       .  S
Cd1014     O1016   1.990       .  S
O1015      C1025   1.280       .  A
O1016     Cd1017   1.986       .  S
Cd1017     O1019   2.039       .  S
O1018      C1025   1.273       .  A
C1020      O1024   1.270       .  A
C1020      C1071   1.460       .  S
C1021      C1065   1.471       .  S
C1023      C1059   1.470       .  S
C1025      C1032   1.469       .  S
C1026      O1027   1.272       .  A
C1026      C1077   1.463       .  S
C1028      C1191   1.481       .  S
C1028      N1029   1.364       .  A
C1028      N1033   1.366       .  A
N1029      C1030   1.355       .  A
C1030      C1052   1.467       .  S
C1030      N1031   1.354       .  A
N1031      C1032   1.356       .  A
C1032      N1033   1.359       .  A
O1034      C1050   1.275       .  A
O1034     Zn1040   2.034       .  S
C1035      O1051   1.272       .  A
C1035      O1048   1.278       .  A
C1035      C1067   1.467       .  S
O1036      C1049   1.274       .  A
O1036     Cd1043   2.070       .  S
O1037      C1055   1.279       .  A
O1037     Cd1046   2.103       .  S
O1038      C1052   1.273       .  A
O1038     Cd1042   2.053       .  S
O1039      C1050   1.270       .  A
O1039     Cd1042   2.040       .  S
Zn1040     O1051   2.000       .  S
Zn1040     O1053   1.991       .  S
Zn1040     O1045   1.937       .  S
O1041      C1052   1.279       .  A
O1041     Cd1046   2.103       .  S
Cd1042     O1044   2.075       .  S
Cd1042     O1045   1.986       .  S
Cd1043     O1047   2.045       .  S
Cd1043     O1056   2.052       .  S
Cd1043     O1045   1.988       .  S
O1044      C1054   1.274       .  A
O1045     Cd1046   2.021       .  S
Cd1046     O1048   2.098       .  S
O1047      C1054   1.271       .  A
C1049      O1053   1.270       .  A
C1049      C1073   1.458       .  S
C1050      C1079   1.460       .  S
C1054      C1085   1.457       .  S
C1055      O1056   1.272       .  A
C1055      C1061   1.466       .  S
C1057      C1208   1.483       .  S
C1057      N1058   1.367       .  A
N1058      C1059   1.360       .  A
C1059      N1060   1.355       .  A
C1061      N1062   1.356       .  A
C1063      C1198   1.478       .  S
C1063      N1064   1.365   1_455  A
N1064      C1065   1.359       .  A
C1065      N1066   1.357   1_655  A
C1067      N1068   1.355       .  A
C1069      C1118   1.473   1_655  S
C1069      N1070   1.363       .  A
N1070      C1071   1.357       .  A
C1071      N1072   1.353       .  A
C1073      N1074   1.353       .  A
C1075      C1111   1.477       .  S
C1075      N1076   1.364       .  A
C1075      N1080   1.363       .  A
N1076      C1077   1.358       .  A
C1077      N1078   1.352       .  A
N1078      C1079   1.352       .  A
C1079      N1080   1.355       .  A
C1081      C1098   1.478       .  S
C1081      N1086   1.361   1_545  A
N1082      C1083   1.360       .  A
N1084      C1085   1.350   1_545  A
C1085      N1086   1.352       .  A
C1087      H1088   1.112   1_565  S
C1087      C1093   1.531   1_455  S
C1087      C1092   1.533   1_465  S
C1089      H1090   1.112       .  S
C1089      C1095   1.531       .  S
C1089      C1096   1.531       .  S
C1091      C1094   1.369       .  D
C1091      C1151   1.464       .  S
C1092      C1095   1.371   1_545  D
C1092      C1128   1.476       .  S
C1093      C1096   1.368       .  D
C1093      C1141   1.476       .  S
C1094      C1108   1.475       .  S
C1095      C1101   1.468       .  S
C1096      C1121   1.466       .  S
C1097      C1102   1.400       .  A
C1097      H1104   1.083       .  S
C1098      C1099   1.409   1_545  A
C1099      C1100   1.391       .  A
C1099      F1106   1.358       .  S
C1100      C1101   1.397       .  A
C1100      H1105   1.084       .  S
C1102      F1103   1.357       .  S
C1107      C1108   1.401       .  A
C1107      C1112   1.394       .  A
C1107      H1114   1.088       .  S
C1108      C1109   1.403       .  A
C1109      C1110   1.399       .  A
C1109      F1116   1.357       .  S
C1110      C1111   1.406       .  A
C1110      H1115   1.087       .  S
C1111      C1112   1.408       .  A
C1112      F1113   1.358       .  S
C1117      C1118   1.407   1_655  A
C1117      C1122   1.398       .  A
C1117      H1124   1.083       .  S
C1119      C1120   1.391       .  A
C1119      F1126   1.358       .  S
C1120      H1125   1.084       .  S
C1121      C1122   1.401       .  A
C1122      F1123   1.357       .  S
C1127      C1128   1.402   1_565  A
C1127      C1132   1.400       .  A
C1127      H1134   1.083       .  S
C1128      C1129   1.403       .  A
C1129      C1130   1.393       .  A
C1129      F1136   1.357       .  S
C1130      C1131   1.403   1_545  A
C1130      H1135   1.083       .  S
C1131      C1132   1.408       .  A
C1132      F1133   1.357       .  S
C1137      C1138   1.403       .  A
C1137      C1142   1.393       .  A
C1137      H1144   1.083       .  S
C1139      C1140   1.401       .  A
C1139      F1146   1.357       .  S
C1140      H1145   1.083       .  S
C1141      C1142   1.402       .  A
C1142      F1143   1.357       .  S
C1147      C1148   1.405       .  A
C1147      C1152   1.391       .  A
C1147      H1154   1.084       .  S
C1148      C1149   1.411       .  A
C1149      C1150   1.397       .  A
C1149      F1156   1.357       .  S
C1150      C1151   1.398       .  A
C1150      H1155   1.084       .  S
C1151      C1152   1.399       .  A
C1152      F1153   1.358       .  S
C1157      C1158   1.407       .  A
C1157      C1162   1.400       .  A
C1157      H1164   1.083       .  S
C1158      C1159   1.412       .  A
C1159      C1160   1.396       .  A
C1159      F1166   1.357       .  S
C1160      C1161   1.398       .  A
C1160      H1165   1.084       .  S
C1161      C1162   1.404       .  A
C1162      F1163   1.357       .  S
C1167      C1172   1.402       .  A
C1167      H1174   1.083       .  S
C1168      C1169   1.401       .  A
C1169      C1170   1.396       .  A
C1169      F1176   1.357       .  S
C1170      C1171   1.408       .  A
C1170      H1175   1.083       .  S
C1172      F1173   1.357       .  S
C1177      C1182   1.396       .  A
C1177      H1184   1.083       .  S
C1178      C1179   1.410       .  A
C1179      C1180   1.403       .  A
C1179      F1186   1.357       .  S
C1180      C1181   1.404       .  A
C1180      H1185   1.083       .  S
C1182      F1183   1.357       .  S
C1187      C1188   1.404       .  A
C1187      C1192   1.401       .  A
C1187      H1194   1.083       .  S
C1188      C1189   1.401       .  A
C1189      C1190   1.395       .  A
C1189      F1196   1.358       .  S
C1190      C1191   1.407       .  A
C1190      H1195   1.083       .  S
C1191      C1192   1.408       .  A
C1192      F1193   1.357       .  S
C1197      C1202   1.396       .  A
C1197      H1204   1.083       .  S
C1198      C1199   1.406   1_455  A
C1199      C1200   1.400       .  A
C1199      F1206   1.357       .  S
C1200      C1201   1.405   1_655  A
C1200      H1205   1.083       .  S
C1202      F1203   1.357       .  S
C1207      C1208   1.407       .  A
C1207      C1212   1.396       .  A
C1207      H1214   1.083       .  S
C1209      C1210   1.402       .  A
C1209      F1216   1.357       .  S
C1210      H1215   1.083       .  S
C1211      C1212   1.402       .  A
C1212      F1213   1.358       .  S
