geometry optimzed in LAMMPS
_audit_creation_date              2020-11-30 
_audit_creation_method            'lammps2cif' 
_symmetry_space_group_name_H-M    'P1' 
_symmetry_Int_Tables_number       1 
_symmetry_cell_setting            triclinic 
loop_ 
_symmetry_equiv_pos_as_xyz 
  x,y,z 
_cell_length_a                    28.651541114020013 
_cell_length_b                    28.494304213826645 
_cell_length_c                    25.304375809521854 
_cell_angle_alpha                 89.45059014617537 
_cell_angle_beta                  89.89843846680454 
_cell_angle_gamma                 120.09019175313449 
loop_ 
_atom_site_label 
_atom_site_type_symbol 
_atom_site_fract_x 
_atom_site_fract_y 
_atom_site_fract_z 
_atom_site_charge 
C1          C  0.73893749  0.52831376  0.50000945     0.02020
C2          C  0.77975770  0.51591600  0.99989546     0.02020
C3          C  0.45876196  0.18016670  0.50022337     0.02020
C4          C  0.46272022  0.22950329  0.50663188     0.02020
C5          C  0.72924567  0.16287242  0.49942964     0.02020
C6          C  0.77233788  0.21335168  0.00668058     0.02020
C7          C  0.53069047  0.76385572  0.50500999     0.02020
C8          C  0.53005976  0.71685134  0.49272304     0.02020
C9          C  0.18252624  0.41672963  0.99742658     0.02020
C10         C  0.23268911  0.42110561  0.49677765     0.02020
C11         C  0.18101919  0.70754802  0.98924070     0.02020
C12         C  0.22831554  0.75529776  0.49623288     0.02020
O13         O  0.92855877  0.42508197  0.36338501    -0.78680
O14         O  0.03371596  0.41199466  0.18300226    -0.78710
O15         O  0.85747069  0.36926617  0.20560013    -0.78720
O16         O  0.07243820  0.46611129  0.28968258    -0.78660
O17         O  0.92284270  0.35266457  0.19288265    -0.78780
O18         O  0.03487863  0.47862701  0.35729835    -0.78700
O19         O  0.09422320  0.49740699  0.19239325    -0.78680
O20         O  0.89069280  0.36900075  0.30019553    -0.78720
C21         C  0.89820713  0.37733046  0.34849093     1.11010
C22         C  0.08124554  0.45084618  0.17530099     1.10890
C23         C  0.87371779  0.33824224  0.18791705     1.11030
C24         C  0.06449753  0.46211210  0.33844940     1.10910
O25         O  0.03735627  0.56728172  0.29675523    -0.78690
O26         O  0.91563781  0.43982552  0.13976455    -0.78760
O27         O  0.84199900  0.43040383  0.28668487    -0.78700
O28         O  0.03801836  0.55678223  0.19533640    -0.78680
O29         O  0.02368898  0.49793006  0.13399129    -0.78730
O30         O  0.91947403  0.50482713  0.30141147    -0.78700
O31         O  0.11401455  0.57442698  0.26956514    -0.78650
O32         O  0.90854079  0.48721419  0.20307119    -0.78720
Co33       Co  0.98012923  0.49044734  0.32111976     1.51530
Co34       Co  0.97414108  0.42648165  0.16791116     1.51690
Co35       Co  0.90282280  0.43095674  0.25461891     1.51570
Co36       Co  0.05172226  0.51095019  0.24635066     1.51470
O37         O  0.97783099  0.45043164  0.24487005    -1.40620
C38         C  0.08936158  0.59055421  0.29960559     1.10930
C39         C  0.89985947  0.47168311  0.15584990     1.11020
C40         C  0.86897107  0.47385397  0.31291869     1.10960
C41         C  0.04119564  0.54664933  0.14735157     1.10930
O42         O  0.43781794  0.36080977  0.19332861    -0.78680
O43         O  0.44067836  0.48341247  0.35989669    -0.78710
O44         O  0.49206681  0.38287466  0.30100376    -0.78720
O45         O  0.40067451  0.50062304  0.19321904    -0.78660
O46         O  0.49753611  0.43372512  0.36549103    -0.78780
O47         O  0.38008726  0.41601190  0.18518107    -0.78700
O48         O  0.39279344  0.47427798  0.29110439    -0.78680
O49         O  0.52228387  0.38523400  0.20740263    -0.78720
C50         C  0.47609522  0.35090849  0.18945732     1.11010
C51         C  0.39590597  0.47045264  0.33992597     1.10890
C52         C  0.48798863  0.38840814  0.34913493     1.11030
C53         C  0.36916289  0.45326393  0.17603015     1.10910
O54         O  0.47300460  0.50444053  0.13522044    -0.78690
O55         O  0.58525199  0.51993608  0.30288169    -0.78760
O56         O  0.58192102  0.50362970  0.20236530    -0.78700
O57         O  0.45706779  0.58214730  0.27139772    -0.78680
O58         O  0.52548902  0.57391508  0.29801159    -0.78730
O59         O  0.52785113  0.45183947  0.14112458    -0.78700
O60         O  0.51682950  0.56410659  0.19617932    -0.78650
O61         O  0.60054126  0.45305070  0.28675032    -0.78720
Co62       Co  0.45516444  0.43414954  0.16968892     1.51530
Co63       Co  0.50884272  0.49891353  0.32386514     1.51690
Co64       Co  0.53588431  0.44665098  0.25548857     1.51570
Co65       Co  0.45784242  0.51839016  0.24756360     1.51470
O66         O  0.47428111  0.45882206  0.24719079    -1.40620
C67         C  0.50345233  0.55332174  0.14832035     1.10930
C68         C  0.61072689  0.49472464  0.31381780     1.11020
C69         C  0.57517646  0.48582092  0.15588112     1.10960
C70         C  0.49721431  0.59737505  0.30215706     1.10930
O71         O  0.51944272  0.00083451  0.13734644    -0.78680
O72         O  0.47270343  0.91644287  0.36248959    -0.78710
O73         O  0.58592220  0.02639702  0.30125495    -0.78720
O74         O  0.45194717  0.82681555  0.22298904    -0.78660
O75         O  0.53136702  0.02408841  0.36368074    -0.78780
O76         O  0.49271935  0.90084885  0.17190393    -0.78700
O77         O  0.51498334  0.89975730  0.29897807    -0.78680
O78         O  0.57981307  0.01670638  0.19618105    -0.78720
C79         C  0.56838280  0.02060158  0.14913311     1.11010
C80         C  0.50240578  0.89766521  0.34760333     1.10890
C81         C  0.57825181  0.03507985  0.34790121     1.11030
C82         C  0.48122458  0.85154841  0.18300011     1.10910
O83         O  0.41901235  0.91940549  0.12322950    -0.78690
O84         O  0.44304711  0.02944445  0.31010709    -0.78760
O85         O  0.51673687  0.07139696  0.19393881    -0.78700
O86         O  0.40106067  0.85275383  0.30096551    -0.78680
O87         O  0.38279521  0.91759579  0.31237594    -0.78730
O88         O  0.43298450  0.00426619  0.18438705    -0.78700
O89         O  0.39144856  0.87203261  0.19828254    -0.78650
O90         O  0.52872987  0.08752849  0.29912426    -0.78720
Co91       Co  0.45877108  0.95099619  0.18454264     1.51530
Co92       Co  0.45740084  0.97186597  0.33250022     1.51690
Co93       Co  0.54990070  0.04588150  0.24802080     1.51570
Co94       Co  0.45934278  0.89293593  0.24717160     1.51470
O95         O  0.48391240  0.97170881  0.25847991    -1.40620
C96         C  0.38311846  0.87940698  0.14924690     1.10930
C97         C  0.48234890  0.07652193  0.31635061     1.11020
C98         C  0.46934983  0.05353327  0.17597278     1.10960
C99         C  0.37053158  0.86880542  0.31988044     1.10930
C100        C  0.28601997  0.84362193  0.37221546     0.25050
C101        C  0.32902500  0.83492928  0.35983387    -0.23060
C102        C  0.33712417  0.79883573  0.39165216     0.19960
C103        C  0.30681437  0.77658792  0.43761289     0.24990
C104        C  0.26332593  0.78431137  0.44952908    -0.23000
C105        C  0.25229356  0.81702977  0.41581849     0.19890
F106        F  0.20963705  0.82402767  0.42577281    -0.12960
F107        F  0.27662838  0.87766863  0.34210481    -0.15320
F108        F  0.31906574  0.74598769  0.46987932    -0.15330
F109        F  0.37595317  0.78657141  0.37966090    -0.12960
C110        C  0.31507165  0.78694669  0.11761548     0.25050
C111        C  0.33198942  0.84232943  0.12278196    -0.23060
C112        C  0.30530222  0.86419018  0.09427170     0.19960
C113        C  0.26572800  0.83274076  0.05773743     0.24990
C114        C  0.25288426  0.77908857  0.04800383    -0.23000
C115        C  0.27590680  0.75547208  0.08005332     0.19890
F116        F  0.26473293  0.70395225  0.07125854    -0.12960
F117        F  0.34048232  0.76499109  0.14469422    -0.15320
F118        F  0.24314882  0.85622875  0.02846583    -0.15330
F119        F  0.32022866  0.91725972  0.09920802    -0.12960
C120        C  0.16913325  0.64052210  0.35750018     0.25050
C121        C  0.11917301  0.63243415  0.33962504    -0.23060
C122        C  0.09415261  0.65682306  0.36710264     0.19960
C123        C  0.11647431  0.68479018  0.41394942     0.24990
C124        C  0.16378388  0.68852863  0.43403761    -0.23000
C125        C  0.19066307  0.66741394  0.40461554     0.19890
F126        F  0.23322884  0.66539667  0.42533639    -0.12960
F127        F  0.19431251  0.61703399  0.33293823    -0.15320
F128        F  0.09019380  0.70530255  0.44152508    -0.15330
F129        F  0.04663658  0.65112522  0.35029252    -0.12960
C130        C  0.12298099  0.61263864  0.02412242     0.25050
C131        C  0.14624906  0.66884749  0.03271746    -0.23060
C132        C  0.13164198  0.68507667  0.07971870     0.19960
C133        C  0.09688229  0.64604464  0.11740397     0.24990
C134        C  0.07321068  0.59006320  0.10726715    -0.23000
C135        C  0.08566562  0.57455273  0.05897040     0.19890
F136        F  0.06363315  0.52160603  0.04542029    -0.12960
F137        F  0.13656574  0.59298435  0.98189110    -0.15320
F138        F  0.08621581  0.66309830  0.16339076    -0.15330
F139        F  0.14934258  0.73817922  0.08883092    -0.12960
C140        C  0.32426418  0.40432257  0.40095212     0.25050
C141        C  0.34869452  0.45434194  0.37417257    -0.23060
C142        C  0.33093470  0.49127824  0.38394944     0.19960
C143        C  0.29112916  0.47953752  0.42221651     0.24990
C144        C  0.26674310  0.42945954  0.44955909    -0.23000
C145        C  0.28315038  0.39164298  0.43790576     0.19890
F146        F  0.26051368  0.34302429  0.46346180    -0.12960
F147        F  0.34106456  0.36826691  0.39208402    -0.15320
F148        F  0.27676596  0.51717813  0.43305535    -0.15330
F149        F  0.35407747  0.53983740  0.35825507    -0.12960
C150        C  0.28876738  0.39146378  0.12102682     0.25050
C151        C  0.32634124  0.44423294  0.13767894    -0.23060
C152        C  0.32825090  0.48886233  0.11096559     0.19960
C153        C  0.29747735  0.48104170  0.06574656     0.24990
C154        C  0.26253047  0.42853728  0.04733973    -0.23000
C155        C  0.25679835  0.38375325  0.07652865     0.19890
F156        F  0.22147160  0.33251557  0.06104365    -0.12960
F157        F  0.28412642  0.34726172  0.14673296    -0.15320
F158        F  0.30298416  0.52507097  0.03904620    -0.15330
F159        F  0.36254763  0.54053698  0.12624254    -0.12960
C160        C  0.16099336  0.41953972  0.39622488     0.25050
C161        C  0.14645387  0.41327162  0.45072057    -0.23060
C162        C  0.09520141  0.40783098  0.46199821     0.19960
C163        C  0.06845687  0.42216527  0.42511538     0.24990
C164        C  0.08985651  0.43984481  0.37431571    -0.23000
C165        C  0.13441533  0.43495157  0.35910740     0.19890
F166        F  0.15241040  0.44491663  0.30828848    -0.12960
F167        F  0.19614569  0.40563342  0.37657322    -0.15320
F168        F  0.02101322  0.41844674  0.43962077    -0.15330
F169        F  0.06940822  0.38797394  0.50887470    -0.12960
C170        C  0.15212466  0.48798475  0.10527018     0.25050
C171        C  0.11767355  0.44430272  0.13875295    -0.23060
C172        C  0.11158019  0.39281600  0.13004127     0.19960
C173        C  0.13586959  0.38421552  0.08602958     0.24990
C174        C  0.16535460  0.42675834  0.04976843    -0.23000
C175        C  0.17489140  0.47897690  0.06065246     0.19890
F176        F  0.20316830  0.52046580  0.02588794    -0.12960
F177        F  0.15983195  0.53851440  0.11268679    -0.15320
F178        F  0.12613164  0.33343319  0.07590616    -0.15330
F179        F  0.07968550  0.35026133  0.16239569    -0.12960
C180        C  0.55879738  0.65733740  0.37299449     0.25050
C181        C  0.51163885  0.63988289  0.34278183    -0.23060
C182        C  0.47520996  0.65712177  0.35753728     0.19960
C183        C  0.48271573  0.68576503  0.40453565     0.24990
C184        C  0.52760909  0.69895744  0.43683587    -0.23000
C185        C  0.56646328  0.68633541  0.41941650     0.19890
F186        F  0.61053952  0.69933519  0.44932913    -0.12960
F187        F  0.59639494  0.64379056  0.35948827    -0.15320
F188        F  0.44344719  0.69577604  0.42095610    -0.15330
F189        F  0.43028090  0.64298835  0.32869771    -0.12960
C190        C  0.48420154  0.62242547  0.02917062     0.25050
C191        C  0.52557141  0.67663009  0.03399489    -0.23060
C192        C  0.56194493  0.69033721  0.07638898     0.19960
C193        C  0.55567670  0.65065296  0.11391416     0.24990
C194        C  0.51434229  0.59631853  0.10833014    -0.23000
C195        C  0.47942392  0.58289236  0.06474695     0.19890
F196        F  0.43871068  0.53135899  0.05695696    -0.12960
F197        F  0.44673273  0.60742841  0.99051774    -0.15320
F198        F  0.59037641  0.66516992  0.15503725    -0.15330
F199        F  0.60379491  0.74175763  0.08111497    -0.12960
C200        C  0.48656214  0.81381842  0.46950831     0.25050
C201        C  0.52643978  0.79937866  0.46326000    -0.23060
C202        C  0.56165222  0.82052332  0.41916771     0.19960
C203        C  0.55452549  0.85255748  0.38078519     0.24990
C204        C  0.51454921  0.86694338  0.38785531    -0.23000
C205        C  0.48254558  0.84896572  0.43423474     0.19890
F206        F  0.44534835  0.86373247  0.44550887    -0.12960
F207        F  0.45000162  0.79307297  0.50966397    -0.15320
F208        F  0.58740346  0.87046873  0.33767277    -0.15330
F209        F  0.60313036  0.81079271  0.41349152    -0.12960
C210        C  0.48175201  0.74673776  0.09293903     0.25050
C211        C  0.52724401  0.77943443  0.06077591    -0.23060
C212        C  0.56251823  0.83325535  0.07594822     0.19960
C213        C  0.54957637  0.85579776  0.11840102     0.24990
C214        C  0.50164092  0.82456325  0.14752851    -0.23000
C215        C  0.46966132  0.76896879  0.13649020     0.19890
F216        F  0.42337266  0.73747473  0.16406869    -0.12960
F217        F  0.44502273  0.69562044  0.07831764    -0.15320
F218        F  0.58244743  0.90916630  0.12902719    -0.15330
F219        F  0.60699498  0.86561925  0.04623454    -0.12960
C220        C  0.84037158  0.24021694  0.07728206     0.25050
C221        C  0.79084642  0.23348144  0.06087307    -0.23060
C222        C  0.76286900  0.25088379  0.09361565     0.19960
C223        C  0.78732118  0.28030029  0.13926318     0.24990
C224        C  0.83999548  0.29259119  0.15246448    -0.23000
C225        C  0.86445718  0.26868051  0.12304934     0.19890
F226        F  0.91393240  0.27660002  0.13568163    -0.12960
F227        F  0.86694393  0.22180668  0.04708216    -0.15320
F228        F  0.76129588  0.30043241  0.16786040    -0.15330
F229        F  0.71414432  0.24365301  0.07899397    -0.12960
C230        C  0.86154102  0.28216213  0.38496435     0.25050
C231        C  0.86681186  0.33393994  0.38767097    -0.23060
C232        C  0.83936622  0.34434838  0.42759529     0.19960
C233        C  0.80720613  0.30415187  0.46410180     0.24990
C234        C  0.80302243  0.25276741  0.46309925    -0.23000
C235        C  0.83057291  0.24201791  0.42311649     0.19890
F236        F  0.82855225  0.19344129  0.42176283    -0.12960
F237        F  0.88773498  0.27117818  0.34660875    -0.15320
F238        F  0.77909029  0.31542316  0.49999040    -0.15330
F239        F  0.84232424  0.39333211  0.43038767    -0.12960
C240        C  0.64617410  0.04531967  0.41480143     0.25050
C241        C  0.62604656  0.06847065  0.37938849    -0.23060
C242        C  0.65370157  0.12491457  0.37180759     0.19960
C243        C  0.69284968  0.15850466  0.40772582     0.24990
C244        C  0.70930190  0.13543021  0.44776647    -0.23000
C245        C  0.68955521  0.07884646  0.44695707     0.19890
F246        F  0.70737032  0.05549849  0.48251771    -0.12960
F247        F  0.62282203  0.99059703  0.41946041    -0.15320
F248        F  0.70917139  0.21212627  0.40669808    -0.15330
F249        F  0.64118646  0.14744333  0.33078562    -0.12960
C250        C  0.70486502  0.10672494  0.08343593     0.25050
C251        C  0.69165939  0.13283787  0.04379236    -0.23060
C252        C  0.63840725  0.12224630  0.03969307     0.19960
C253        C  0.59818115  0.08351698  0.07200302     0.24990
C254        C  0.61079338  0.05675337  0.11157999    -0.23000
C255        C  0.66473468  0.06952083  0.11783095     0.19890
F256        F  0.67821205  0.04464101  0.15590735    -0.12960
F257        F  0.75572901  0.11509938  0.08700270    -0.15320
F258        F  0.54684243  0.07266881  0.06447171    -0.15330
F259        F  0.62491386  0.14803320  0.00253792    -0.12960
C260        C  0.51951750  0.30480324  0.44255966     0.25050
C261        C  0.46811290  0.26545955  0.46105847    -0.23060
C262        C  0.42234877  0.26476797  0.43992971     0.19960
C263        C  0.42816188  0.30410132  0.40248140     0.24990
C264        C  0.47977987  0.34490780  0.38639723    -0.23000
C265        C  0.52522801  0.34419584  0.40578694     0.19890
F266        F  0.57547494  0.38226835  0.38943590    -0.12960
F267        F  0.56455357  0.30596274  0.46056438    -0.15320
F268        F  0.38363105  0.30265538  0.38239328    -0.15330
F269        F  0.37216483  0.22660047  0.45618495    -0.12960
C270        C  0.51439127  0.28477085  0.08484283     0.25050
C271        C  0.46463340  0.25155158  0.06029092    -0.23060
C272        C  0.41710917  0.24238175  0.08561842     0.19960
C273        C  0.41981293  0.27066388  0.13163258     0.24990
C274        C  0.47021189  0.30702138  0.15404363    -0.23000
C275        C  0.51679108  0.30953266  0.13276238     0.19890
F276        F  0.56597481  0.34125780  0.15467406    -0.12960
F277        F  0.56147946  0.29684242  0.06096241    -0.15320
F278        F  0.37342022  0.26481248  0.15236113    -0.15330
F279        F  0.36831399  0.20869627  0.06404110    -0.12960
C280        C  0.42456959  0.10098845  0.37222462     0.25050
C281        C  0.47621239  0.11315497  0.35413163    -0.23060
C282        C  0.52158430  0.15389129  0.38037445     0.19960
C283        C  0.51572821  0.17657787  0.42683495     0.24990
C284        C  0.46432661  0.16126374  0.44705400    -0.23000
C285        C  0.41880752  0.12519895  0.41802615     0.19890
F286        F  0.36866355  0.11172013  0.43513888    -0.12960
F287        F  0.37944365  0.06385498  0.34698801    -0.15320
F288        F  0.56073241  0.21168525  0.45334602    -0.15330
F289        F  0.57210184  0.16968568  0.36333860    -0.12960
C290        C  0.41165542  0.10169376  0.06562170     0.25050
C291        C  0.45885093  0.14804798  0.04728131    -0.23060
C292        C  0.50698787  0.16488099  0.07465050     0.19960
C293        C  0.50811586  0.13785055  0.12014423     0.24990
C294        C  0.46208343  0.08903110  0.13695203    -0.23000
C295        C  0.41339750  0.07183592  0.10958092     0.19890
F296        F  0.36783397  0.02588107  0.12463749    -0.12960
F297        F  0.36419422  0.08466210  0.04040864    -0.15320
F298        F  0.55614497  0.15818447  0.14533332    -0.15330
F299        F  0.55418216  0.20644078  0.05618735    -0.12960
C300        C  0.66247617  0.53372685  0.45225928     0.25050
C301        C  0.71373343  0.53735634  0.44974874    -0.23660
C302        C  0.73606167  0.54499846  0.39803510     0.19960
C303        C  0.70248645  0.52825488  0.35348671     0.24990
C304        C  0.64814918  0.51319680  0.35881367    -0.23000
C305        C  0.63021282  0.52132422  0.40758500     0.19890
F306        F  0.58078117  0.51637071  0.41259775    -0.12960
F307        F  0.64314438  0.54337381  0.49730393    -0.15320
F308        F  0.72368914  0.52995986  0.30501261    -0.15330
F309        F  0.79001604  0.57310153  0.38957889    -0.12960
C310        C  0.67180860  0.54508806  0.12298174     0.25050
C311        C  0.62159811  0.49664852  0.12094850    -0.23060
C312        C  0.61540356  0.45672345  0.08458406     0.19960
C313        C  0.65762527  0.46469680  0.05137766     0.24990
C314        C  0.70549611  0.51505726  0.04931558    -0.23000
C315        C  0.71294045  0.55493927  0.08621967     0.19890
F316        F  0.75808309  0.60453101  0.08413769    -0.12960
F317        F  0.67954202  0.58440849  0.15758113    -0.15320
F318        F  0.64891478  0.42576302  0.01580324    -0.15330
F319        F  0.56721639  0.41084787  0.07847316    -0.12960
C320        C  0.83916043  0.54540925  0.08105446     0.25050
C321        C  0.80102808  0.50352407  0.04903145    -0.23060
C322        C  0.79301520  0.45097449  0.05609063     0.19960
C323        C  0.82509812  0.44128669  0.09089666     0.24990
C324        C  0.86483701  0.48336326  0.12131780    -0.23000
C325        C  0.87014569  0.53516000  0.11767600     0.19890
F326        F  0.90785898  0.57659318  0.14673065    -0.12960
F327        F  0.84944473  0.59698619  0.07394159    -0.15320
F328        F  0.81778889  0.39050182  0.09413500    -0.15330
F329        F  0.75596036  0.40928129  0.02682951    -0.12960
C330        C  0.76895455  0.46143747  0.41841197     0.25050
C331        C  0.80165040  0.50571675  0.45082968    -0.23060
C332        C  0.85620350  0.53951193  0.43746665     0.19960
C333        C  0.87732970  0.53074833  0.39131335     0.24990
C334        C  0.84454219  0.48698122  0.35802882    -0.23000
C335        C  0.78998643  0.45247076  0.37218244     0.19890
F336        F  0.75710244  0.40920407  0.34209945    -0.12960
F337        F  0.71643142  0.42722044  0.43130203    -0.15320
F338        F  0.93032646  0.56474386  0.38006720    -0.15330
F339        F  0.88868048  0.58219020  0.46838620    -0.12960
C340        C  0.73893069  0.52830076  0.00001164     0.02020
C341        C  0.77976528  0.51592991  0.49989301     0.02020
C342        C  0.45875513  0.18016409  0.00024943     0.02020
C343        C  0.46270945  0.22949927  0.00665639     0.02020
C344        C  0.72924046  0.16287569  0.99943667     0.02020
C345        C  0.77234226  0.21334922  0.50667288     0.02020
C346        C  0.53069086  0.76385779  0.00498564     0.02020
C347        C  0.53007211  0.71685963  0.99269407     0.02020
C348        C  0.18252639  0.41672862  0.49741485     0.02020
C349        C  0.23269345  0.42111666  0.99677213     0.02020
C350        C  0.18098920  0.70754907  0.48922722     0.02020
C351        C  0.22832484  0.75531324  0.99623399     0.02020
O352        O  0.92855148  0.42507675  0.86338402    -0.78680
O353        O  0.03372061  0.41201058  0.68300262    -0.78710
O354        O  0.85746963  0.36926060  0.70559630    -0.78720
O355        O  0.07243758  0.46611609  0.78968412    -0.78660
O356        O  0.92284643  0.35266602  0.69287417    -0.78780
O357        O  0.03487232  0.47863144  0.85729584    -0.78700
O358        O  0.09421991  0.49742604  0.69238782    -0.78680
O359        O  0.89068514  0.36899456  0.80019502    -0.78720
C360        C  0.89819959  0.37732517  0.84849049     1.11010
C361        C  0.08124430  0.45086768  0.67528956     1.10890
C362        C  0.87372028  0.33824050  0.68791038     1.11030
C363        C  0.06449439  0.46211795  0.83845129     1.10910
O364        O  0.03733869  0.56727782  0.79675732    -0.78690
O365        O  0.91563314  0.43982414  0.63976318    -0.78760
O366        O  0.84198567  0.43039116  0.78668083    -0.78700
O367        O  0.03799892  0.55678632  0.69535067    -0.78680
O368        O  0.02368249  0.49794347  0.63400051    -0.78730
O369        O  0.91945857  0.50481586  0.80140895    -0.78700
O370        O  0.11400176  0.57443350  0.76957308    -0.78650
O371        O  0.90853151  0.48720824  0.70307111    -0.78720
Co372      Co  0.98011756  0.49044369  0.82111995     1.51530
Co373      Co  0.97414075  0.42648803  0.66791126     1.51690
Co374      Co  0.90281442  0.43095028  0.75461809     1.51570
Co375      Co  0.05171432  0.51095356  0.74635490     1.51470
O376        O  0.97782451  0.45042995  0.74487176    -1.40620
C377        C  0.08934302  0.59055159  0.79961677     1.10930
C378        C  0.89985287  0.47167982  0.65584906     1.11020
C379        C  0.86895634  0.47384024  0.81291663     1.10960
C380        C  0.04116229  0.54665798  0.64736171     1.10930
O381        O  0.43781404  0.36078962  0.69332043    -0.78680
O382        O  0.44066409  0.48339107  0.85989144    -0.78710
O383        O  0.49206073  0.38284970  0.80100181    -0.78720
O384        O  0.40066501  0.50059754  0.69321659    -0.78660
O385        O  0.49751466  0.43369716  0.86548673    -0.78780
O386        O  0.38008014  0.41598737  0.68517761    -0.78700
O387        O  0.39278308  0.47425467  0.79109639    -0.78680
O388        O  0.52227963  0.38521494  0.70739659    -0.78720
C389        C  0.47609268  0.35089074  0.68944728     1.11010
C390        C  0.39589295  0.47043191  0.83991801     1.10890
C391        C  0.48797430  0.38838199  0.84913215     1.11030
C392        C  0.36915115  0.45323693  0.67603168     1.10910
O393        O  0.47299553  0.50442153  0.63521858    -0.78690
O394        O  0.58523900  0.51990859  0.80288291    -0.78760
O395        O  0.58191379  0.50360887  0.70236490    -0.78700
O396        O  0.45706057  0.58212291  0.77139306    -0.78680
O397        O  0.52548386  0.57389638  0.79801513    -0.78730
O398        O  0.52784615  0.45182349  0.64112024    -0.78700
O399        O  0.51682432  0.56408065  0.69618168    -0.78650
O400        O  0.60053272  0.45302661  0.78674788    -0.78720
Co401      Co  0.45515814  0.43412943  0.66968416     1.51530
Co402      Co  0.50882908  0.49888885  0.82386273     1.51690
Co403      Co  0.53587634  0.44662754  0.75548646     1.51570
Co404      Co  0.45783441  0.51836553  0.74756121     1.51470
O405        O  0.47427167  0.45879758  0.74718769    -1.40620
C406        C  0.50344247  0.55330139  0.64832362     1.10930
C407        C  0.61071425  0.49469733  0.81381870     1.11020
C408        C  0.57517079  0.48580438  0.65587888     1.10960
C409        C  0.49721059  0.59735937  0.80214919     1.10930
O410        O  0.51943896  0.00085139  0.63734446    -0.78680
O411        O  0.47269414  0.91645818  0.86249026    -0.78710
O412        O  0.58591264  0.02641916  0.80125629    -0.78720
O413        O  0.45194919  0.82683647  0.72299573    -0.78660
O414        O  0.53135484  0.02410470  0.86368234    -0.78780
O415        O  0.49272194  0.90086734  0.67190755    -0.78700
O416        O  0.51498195  0.89978443  0.79897851    -0.78680
O417        O  0.57980758  0.01672969  0.69618314    -0.78720
C418        C  0.56837875  0.02062117  0.64913369     1.11010
C419        C  0.50240192  0.89768687  0.84760338     1.10890
C420        C  0.57824046  0.03509876  0.84790304     1.11030
C421        C  0.48122872  0.85156807  0.68300783     1.10910
O422        O  0.41901093  0.91941301  0.62322436    -0.78690
O423        O  0.44303398  0.02945885  0.81010878    -0.78760
O424        O  0.51672431  0.07141197  0.69393774    -0.78700
O425        O  0.40105600  0.85277279  0.80096301    -0.78680
O426        O  0.38278517  0.91761099  0.81237334    -0.78730
O427        O  0.43297532  0.00427629  0.68437642    -0.78700
O428        O  0.39144564  0.87204334  0.69827834    -0.78650
O429        O  0.52871573  0.08754533  0.79912591    -0.78720
Co430      Co  0.45876666  0.95101019  0.68453905     1.51530
Co431      Co  0.45738979  0.97188120  0.83250012     1.51690
Co432      Co  0.54988968  0.04590092  0.74802156     1.51570
Co433      Co  0.45933954  0.89295573  0.74717131     1.51470
O434        O  0.48390267  0.97172698  0.75847831    -1.40620
C435        C  0.38311809  0.87941222  0.64924029     1.10930
C436        C  0.48233494  0.07653606  0.81635553     1.11020
C437        C  0.46933951  0.05354432  0.67596400     1.10960
C438        C  0.37052361  0.86882122  0.81987607     1.10930
C439        C  0.28600518  0.84362477  0.87220645     0.25050
C440        C  0.32901857  0.83494344  0.85982935    -0.23060
C441        C  0.33712901  0.79886146  0.89165350     0.19960
C442        C  0.30682481  0.77661808  0.93761716     0.24990
C443        C  0.26332583  0.78432607  0.94952704    -0.23000
C444        C  0.25228058  0.81703082  0.91581067     0.19890
F445        F  0.20961597  0.82401629  0.92576220    -0.12960
F446        F  0.27660392  0.87766147  0.84209041    -0.15320
F447        F  0.31908781  0.74603106  0.96989017    -0.15330
F448        F  0.37596279  0.78660347  0.87966415    -0.12960
C449        C  0.31508398  0.78694678  0.61760160     0.25050
C450        C  0.33199219  0.84232744  0.62277205    -0.23060
C451        C  0.30529484  0.86418030  0.59426702     0.19960
C452        C  0.26571877  0.83272599  0.55773593     0.24990
C453        C  0.25288111  0.77907542  0.54800034    -0.23000
C454        C  0.27591558  0.75546667  0.58004326     0.19890
F455        F  0.26474433  0.70394767  0.57124857    -0.12960
F456        F  0.34050429  0.76499836  0.64467510    -0.15320
F457        F  0.24312728  0.85620669  0.52847215    -0.15330
F458        F  0.32021070  0.91724683  0.59920744    -0.12960
C459        C  0.16913161  0.64054495  0.85748777     0.25050
C460        C  0.11914584  0.63241838  0.83965041    -0.23060
C461        C  0.09410225  0.65675804  0.86717255     0.19960
C462        C  0.11643311  0.68471762  0.91402041     0.24990
C463        C  0.16377720  0.68850128  0.93406520    -0.23000
C464        C  0.19067125  0.66742956  0.90460367     0.19890
F465        F  0.23328104  0.66546146  0.92527514    -0.12960
F466        F  0.19434011  0.61711184  0.83287934    -0.15320
F467        F  0.09013562  0.70518723  0.94163409    -0.15330
F468        F  0.04655983  0.65102350  0.85040226    -0.12960
C469        C  0.12272043  0.61262093  0.52402082     0.25050
C470        C  0.14616150  0.66884212  0.53268737    -0.23060
C471        C  0.13168044  0.68508506  0.57976094     0.19960
C472        C  0.09692975  0.64606007  0.61745668     0.24990
C473        C  0.07312177  0.59007727  0.60726274    -0.23000
C474        C  0.08540120  0.57455775  0.55888157     0.19890
F475        F  0.06319064  0.52161297  0.54525525    -0.12960
F476        F  0.13613436  0.59291756  0.48170960    -0.15320
F477        F  0.08641764  0.66312529  0.66351795    -0.15330
F478        F  0.14948841  0.73819598  0.58894197    -0.12960
C479        C  0.32427057  0.40432048  0.90096852     0.25050
C480        C  0.34867942  0.45432314  0.87416011    -0.23060
C481        C  0.33089644  0.49124711  0.88390381     0.19960
C482        C  0.29109214  0.47951383  0.92217057     0.24990
C483        C  0.26673048  0.42945393  0.94954430    -0.23000
C484        C  0.28315744  0.39164666  0.93792011     0.19890
F485        F  0.26054569  0.34304647  0.96350936    -0.12960
F486        F  0.34109326  0.36827727  0.89213234    -0.15320
F487        F  0.27671410  0.51714809  0.93298584    -0.15330
F488        F  0.35401982  0.53979093  0.85818167    -0.12960
C489        C  0.28877453  0.39143190  0.62100932     0.25050
C490        C  0.32631690  0.44419939  0.63769294    -0.23060
C491        C  0.32818501  0.48882797  0.61101926     0.19960
C492        C  0.29741291  0.48101456  0.56580012     0.24990
C493        C  0.26250856  0.42851579  0.54735452    -0.23000
C494        C  0.25680718  0.38372709  0.57651151     0.19890
F495        F  0.22151017  0.33249148  0.56099799    -0.12960
F496        F  0.28416561  0.34722705  0.64668125    -0.15320
F497        F  0.30288171  0.52504673  0.53913637    -0.15330
F498        F  0.36244219  0.54049891  0.62633362    -0.12960
C499        C  0.16095910  0.41950535  0.89624113     0.25050
C500        C  0.14644672  0.41328551  0.95074263    -0.23060
C501        C  0.09521656  0.40789539  0.96203015     0.19960
C502        C  0.06847303  0.42222206  0.92514024     0.24990
C503        C  0.08985232  0.43985487  0.87432648    -0.23000
C504        C  0.13438628  0.43491856  0.85911698     0.19890
F505        F  0.15235833  0.44483720  0.80829009    -0.12960
F506        F  0.19607748  0.40554978  0.87659586    -0.15320
F507        F  0.02104804  0.41854104  0.93965464    -0.15330
F508        F  0.06943594  0.38808857  0.00892027    -0.12960
C509        C  0.15204524  0.48799645  0.60518572     0.25050
C510        C  0.11766015  0.44433303  0.63871901    -0.23060
C511        C  0.11161719  0.39286127  0.63004817     0.19960
C512        C  0.13590474  0.38425381  0.58603932     0.24990
C513        C  0.16534498  0.42677533  0.54974396    -0.23000
C514        C  0.17482260  0.47898266  0.56057941     0.19890
F515        F  0.20305312  0.52044989  0.52578005    -0.12960
F516        F  0.15967372  0.53850430  0.61254385    -0.15320
F517        F  0.12621427  0.33348001  0.57595863    -0.15330
F518        F  0.07977529  0.35032486  0.66244424    -0.12960
C519        C  0.55881214  0.65735696  0.87295817     0.25050
C520        C  0.51164304  0.63988372  0.84275793    -0.23060
C521        C  0.47521056  0.65711692  0.85751671     0.19960
C522        C  0.48272261  0.68576991  0.90450983     0.24990
C523        C  0.52762324  0.69897360  0.93680337    -0.23000
C524        C  0.56648258  0.68636172  0.91937679     0.19890
F525        F  0.61056700  0.69937483  0.94928128    -0.12960
F526        F  0.59641478  0.64381936  0.85944499    -0.15320
F527        F  0.44345079  0.69577351  0.92093598    -0.15330
F528        F  0.43027017  0.64296433  0.82868921    -0.12960
C529        C  0.48414776  0.62243024  0.52922295     0.25050
C530        C  0.52554892  0.67662289  0.53402627    -0.23060
C531        C  0.56194702  0.69031738  0.57639572     0.19960
C532        C  0.55568219  0.65062801  0.61391250     0.24990
C533        C  0.51432038  0.59630301  0.60834569    -0.23000
C534        C  0.47936696  0.58289184  0.56479363     0.19890
F535        F  0.43862114  0.53136931  0.55702920    -0.12960
F536        F  0.44665506  0.60745347  0.49059590    -0.15320
F537        F  0.59041349  0.66512857  0.65500728    -0.15330
F538        F  0.60381819  0.74172906  0.58110254    -0.12960
C539        C  0.48655927  0.81382299  0.96949474     0.25050
C540        C  0.52643695  0.79938371  0.96324012    -0.23060
C541        C  0.56165143  0.82053820  0.91915008     0.19960
C542        C  0.55452530  0.85257924  0.88077501     0.24990
C543        C  0.51454873  0.86696387  0.88785149    -0.23000
C544        C  0.48254600  0.84897987  0.93423087     0.19890
F545        F  0.44535285  0.86374970  0.94551387    -0.12960
F546        F  0.44999661  0.79306931  0.00964802    -0.15320
F547        F  0.58740493  0.87049915  0.83766401    -0.15330
F548        F  0.60313203  0.81081202  0.91346951    -0.12960
C549        C  0.48175610  0.74674755  0.59296455     0.25050
C550        C  0.52724783  0.77943897  0.56079885    -0.23060
C551        C  0.56252280  0.83326220  0.57596471     0.19960
C552        C  0.54958107  0.85581137  0.61841201     0.24990
C553        C  0.50164671  0.82458048  0.64754201    -0.23000
C554        C  0.46966807  0.76898425  0.63651214     0.19890
F555        F  0.42338123  0.73749317  0.66409440    -0.12960
F556        F  0.44502196  0.69563053  0.57834768    -0.15320
F557        F  0.58245088  0.90918208  0.62903011    -0.15330
F558        F  0.60699873  0.86562197  0.54624830    -0.12960
C559        C  0.84037540  0.24021537  0.57727493     0.25050
C560        C  0.79085079  0.23348065  0.56086473    -0.23060
C561        C  0.76287368  0.25088428  0.59360592     0.19960
C562        C  0.78732525  0.28030055  0.63925363     0.24990
C563        C  0.83999890  0.29259015  0.65245666    -0.23000
C564        C  0.86446062  0.26867907  0.62304235     0.19890
F565        F  0.91393517  0.27659768  0.63567611    -0.12960
F566        F  0.86694728  0.22180350  0.54707646    -0.15320
F567        F  0.76129978  0.30043336  0.66784954    -0.15330
F568        F  0.71414903  0.24365328  0.57898372    -0.12960
C569        C  0.86152083  0.28215324  0.88495949     0.25050
C570        C  0.86680509  0.33393633  0.88767227    -0.23060
C571        C  0.83937472  0.34435307  0.92760624     0.19960
C572        C  0.80721626  0.30415957  0.96411569     0.24990
C573        C  0.80301945  0.25276951  0.96310687    -0.23000
C574        C  0.83055537  0.24201199  0.92311492     0.19890
F575        F  0.82852293  0.19343002  0.92175478    -0.12960
F576        F  0.88769905  0.27116072  0.84659422    -0.15320
F577        F  0.77911426  0.31543956  0.00001295    -0.15330
F578        F  0.84234538  0.39334226  0.93040539    -0.12960
C579        C  0.64616102  0.04533079  0.91480140     0.25050
C580        C  0.62603405  0.06848613  0.87939300    -0.23060
C581        C  0.65369059  0.12493072  0.87181705     0.19960
C582        C  0.69283923  0.15851656  0.90773694     0.24990
C583        C  0.70929187  0.13543741  0.94777255    -0.23000
C584        C  0.68954342  0.07885352  0.94695742     0.19890
F585        F  0.70735906  0.05550121  0.98251248    -0.12960
F586        F  0.62280793  0.99060768  0.91945490    -0.15320
F587        F  0.70916228  0.21213860  0.90671537    -0.15330
F588        F  0.64117799  0.14746404  0.83079729    -0.12960
C589        C  0.70486361  0.10672999  0.58343551     0.25050
C590        C  0.69166073  0.13283780  0.54378420    -0.23060
C591        C  0.63840901  0.12224667  0.53967924     0.19960
C592        C  0.59818127  0.08352417  0.57199311     0.24990
C593        C  0.61079111  0.05676675  0.61157856    -0.23000
C594        C  0.66473166  0.06953297  0.61783375     0.19890
F595        F  0.67820688  0.04465878  0.65591795    -0.12960
F596        F  0.75572673  0.11510304  0.58700786    -0.15320
F597        F  0.54684337  0.07267677  0.56445746    -0.15330
F598        F  0.62491783  0.14802827  0.50251621    -0.12960
C599        C  0.51950383  0.30478939  0.94257324     0.25050
C600        C  0.46810009  0.26545237  0.96108027    -0.23060
C601        C  0.42233553  0.26475968  0.93995099     0.19960
C602        C  0.42814765  0.30408501  0.90249299     0.24990
C603        C  0.47976515  0.34488382  0.88639815    -0.23000
C604        C  0.52521332  0.34417286  0.90578941     0.19890
F605        F  0.57545966  0.38223904  0.88943055    -0.12960
F606        F  0.56454031  0.30595191  0.96058118    -0.15320
F607        F  0.38361635  0.30263815  0.88240508    -0.15330
F608        F  0.37215221  0.22659871  0.95621439    -0.12960
C609        C  0.51439841  0.28477163  0.58482109     0.25050
C610        C  0.46464169  0.25155241  0.56026730    -0.23060
C611        C  0.41711577  0.24237748  0.58559474     0.19960
C612        C  0.41981631  0.27065354  0.63161230     0.24990
C613        C  0.47021385  0.30701066  0.65402620    -0.23000
C614        C  0.51679552  0.30952914  0.63274249     0.19890
F615        F  0.56597855  0.34125618  0.65465473    -0.12960
F616        F  0.56148789  0.29684564  0.56094196    -0.15320
F617        F  0.37342171  0.26479665  0.65234173    -0.15330
F618        F  0.36832194  0.20869246  0.56401458    -0.12960
C619        C  0.42455696  0.10099370  0.87224398     0.25050
C620        C  0.47619910  0.11316339  0.85414537    -0.23060
C621        C  0.52157182  0.15389611  0.88039029     0.19960
C622        C  0.51571776  0.17657565  0.92685670     0.24990
C623        C  0.46431716  0.16126016  0.94707931    -0.23000
C624        C  0.41879683  0.12519881  0.91805083     0.19890
F625        F  0.36865364  0.11171874  0.93516733    -0.12960
F626        F  0.37942998  0.06386328  0.84700662    -0.15320
F627        F  0.56072319  0.21167895  0.95336858    -0.15330
F628        F  0.57208859  0.16969489  0.86334925    -0.12960
C629        C  0.41165627  0.10169611  0.56559464     0.25050
C630        C  0.45885376  0.14804877  0.54725520    -0.23060
C631        C  0.50698843  0.16488216  0.57462833     0.19960
C632        C  0.50811182  0.13785574  0.62012679     0.24990
C633        C  0.46207712  0.08903849  0.63693550    -0.23000
C634        C  0.41339405  0.07184092  0.60955827     0.19890
F635        F  0.36782925  0.02588650  0.62461340    -0.12960
F636        F  0.36419726  0.08466385  0.54037715    -0.15320
F637        F  0.55613890  0.15819135  0.64532006    -0.15330
F638        F  0.55418458  0.20643972  0.55616569    -0.12960
C639        C  0.66246031  0.53369755  0.95226105     0.25050
C640        C  0.71372106  0.53733467  0.94975049    -0.23660
C641        C  0.73604924  0.54497773  0.89803671     0.19960
C642        C  0.70247400  0.52823174  0.85348832     0.24990
C643        C  0.64813537  0.51316844  0.85881531    -0.23000
C644        C  0.63019645  0.52129142  0.90758698     0.19890
F645        F  0.58076209  0.51633136  0.91260003    -0.12960
F646        F  0.64312573  0.54334230  0.99730490    -0.15320
F647        F  0.72367780  0.52993962  0.80501409    -0.15330
F648        F  0.79000348  0.57308392  0.88958036    -0.12960
C649        C  0.67180556  0.54507584  0.62298706     0.25050
C650        C  0.62159369  0.49663854  0.62094435    -0.23060
C651        C  0.61539942  0.45672219  0.58456870     0.19960
C652        C  0.65762259  0.46470199  0.55136084     0.24990
C653        C  0.70549621  0.51506071  0.54931036    -0.23000
C654        C  0.71293976  0.55493387  0.58622516     0.19890
F655        F  0.75808454  0.60452439  0.58415470    -0.12960
F656        F  0.67953901  0.58438804  0.65759709    -0.15320
F657        F  0.64891254  0.42577655  0.51577641    -0.15330
F658        F  0.56721202  0.41084844  0.57845012    -0.12960
C659        C  0.83916197  0.54541421  0.58105581     0.25050
C660        C  0.80103154  0.50353243  0.54902856    -0.23060
C661        C  0.79301751  0.45098187  0.55608331     0.19960
C662        C  0.82509744  0.44129007  0.59088970     0.24990
C663        C  0.86483375  0.48336330  0.62131584    -0.23000
C664        C  0.87014368  0.53516073  0.61767788     0.19890
F665        F  0.90785520  0.57659082  0.64673687    -0.12960
F666        F  0.84944835  0.59699226  0.57394652    -0.15320
F667        F  0.81778793  0.39050482  0.59412347    -0.15330
F668        F  0.75596478  0.40929194  0.52681748    -0.12960
C669        C  0.76894424  0.46141722  0.91841837     0.25050
C670        C  0.80164030  0.50569988  0.95083243    -0.23060
C671        C  0.85619152  0.53949784  0.93746514     0.19960
C672        C  0.87731538  0.53073450  0.89131050     0.24990
C673        C  0.84452798  0.48696429  0.85802924    -0.23000
C674        C  0.78997442  0.45244983  0.87218786     0.19890
F675        F  0.75709125  0.40917943  0.84210862    -0.12960
F676        F  0.71642277  0.42719790  0.93131278    -0.15320
F677        F  0.93030990  0.56473436  0.88005929    -0.15330
F678        F  0.88866832  0.58217979  0.96838084    -0.12960
loop_ 
_geom_bond_atom_site_label_1 
_geom_bond_atom_site_label_2 
_geom_bond_distance 
_geom_bond_site_symmetry_2 
_ccdc_geom_bond_type 
C1          C301   1.546       .  S
C1          C653   1.497       .  S
C1          C341   1.381       .  D
C2          C321   1.501   1_556  S
C2          C670   1.485       .  S
C2          C340   1.381   1_556  D
C3          C284   1.492       .  S
C3          C630   1.495       .  S
C3            C4   1.364       .  D
C4          C261   1.490       .  S
C4          C610   1.491       .  S
C5          C244   1.490       .  S
C5          C590   1.485       .  S
C5          C345   1.361       .  D
C6          C221   1.484       .  S
C6          C573   1.494   1_554  S
C6          C344   1.361   1_554  D
C7          C201   1.503       .  S
C7          C550   1.502       .  S
C7            C8   1.369       .  D
C8          C184   1.498       .  S
C8          C530   1.500       .  S
C9          C174   1.491   1_556  S
C9          C500   1.542       .  S
C9          C349   1.379       .  D
C10         C144   1.481       .  S
C10         C493   1.497       .  S
C10         C348   1.379       .  D
C11         C131   1.513   1_556  S
C11         C463   1.495       .  S
C11         C351   1.370       .  D
C12         C104   1.494       .  S
C12         C453   1.487       .  S
C12         C350   1.370       .  D
O13          C21   1.255       .  A
O13         Co33   1.998       .  S
O14          C22   1.265       .  A
O14         Co34   1.984   1_455  S
O15          C23   1.272       .  A
O15         Co35   2.018       .  S
O16          C24   1.248       .  A
O16         Co36   1.981       .  S
O17          C23   1.260       .  A
O17         Co34   1.963       .  S
O18          C24   1.254       .  A
O18         Co33   1.985   1_455  S
O19          C22   1.266       .  A
O19         Co36   1.993       .  S
O20          C21   1.246       .  A
O20         Co35   1.978       .  S
C21         C231   1.476       .  S
C22         C171   1.475       .  S
C23         C224   1.482       .  S
C24         C164   1.486       .  S
O25          C38   1.294       .  A
O25         Co33   2.057   1_455  S
O26          C39   1.270       .  A
O26         Co34   2.025       .  S
O27          C40   1.276       .  A
O27         Co35   1.914       .  S
O28          C41   1.264       .  A
O28         Co36   2.002       .  S
O29          C41   1.267       .  A
O29         Co34   1.990   1_455  S
O30          C40   1.292       .  A
O30         Co33   2.037       .  S
O31          C38   1.272       .  A
O31         Co36   1.894       .  S
O32          C39   1.259       .  A
O32         Co35   1.998       .  S
Co33         O37   2.235       .  S
Co34         O37   2.055       .  S
Co35         O37   1.946       .  S
Co36         O37   1.949   1_455  S
C38         C121   1.478       .  S
C39         C324   1.488       .  S
C40         C334   1.483       .  S
C41         C134   1.495       .  S
O42          C50   1.266       .  A
O42         Co62   1.976       .  S
O43          C51   1.252       .  A
O43         Co63   1.990       .  S
O44          C52   1.242       .  A
O44         Co64   1.968       .  S
O45          C53   1.271       .  A
O45         Co65   2.005       .  S
O46          C52   1.253       .  A
O46         Co63   2.006       .  S
O47          C53   1.268       .  A
O47         Co62   1.981       .  S
O48          C51   1.246       .  A
O48         Co65   1.971       .  S
O49          C50   1.276       .  A
O49         Co64   2.013       .  S
C50         C274   1.485       .  S
C51         C141   1.469       .  S
C52         C264   1.471       .  S
C53         C151   1.485       .  S
O54          C67   1.266       .  A
O54         Co62   1.993       .  S
O55          C68   1.284       .  A
O55         Co63   2.027       .  S
O56          C69   1.262       .  A
O56         Co64   1.997       .  S
O57          C70   1.275       .  A
O57         Co65   1.930       .  S
O58          C70   1.288       .  A
O58         Co63   2.043       .  S
O59          C69   1.268       .  A
O59         Co62   2.012       .  S
O60          C67   1.264       .  A
O60         Co65   1.999       .  S
O61          C68   1.278       .  A
O61         Co64   1.939       .  S
Co62         O66   2.070       .  S
Co63         O66   2.228       .  S
Co64         O66   1.973       .  S
Co65         O66   1.976       .  S
C67         C194   1.488       .  S
C68         C304   1.474       .  S
C69         C311   1.492       .  S
C70         C181   1.489       .  S
O71          C79   1.259       .  A
O71         Co91   1.987   1_545  S
O72          C80   1.270       .  A
O72         Co92   1.984       .  S
O73          C81   1.250       .  A
O73         Co93   1.937       .  S
O74          C82   1.271       .  A
O74         Co94   1.895       .  S
O75          C81   1.279       .  A
O75         Co92   2.048   1_545  S
O76          C82   1.300       .  A
O76         Co91   2.119       .  S
O77          C80   1.274       .  A
O77         Co94   2.000       .  S
O78          C79   1.254       .  A
O78         Co93   1.969       .  S
C79         C254   1.471       .  S
C80         C204   1.488       .  S
C81         C241   1.459       .  S
C82         C214   1.484       .  S
O83          C96   1.264       .  A
O83         Co91   1.876       .  S
O84          C97   1.258       .  A
O84         Co92   1.960   1_545  S
O85          C98   1.274       .  A
O85         Co93   1.996       .  S
O86          C99   1.268       .  A
O86         Co94   1.999       .  S
O87          C99   1.264       .  A
O87         Co92   1.981       .  S
O88          C98   1.276       .  A
O88         Co91   1.994   1_545  S
O89          C96   1.299       .  A
O89         Co94   2.128       .  S
O90          C97   1.277       .  A
O90         Co93   2.049       .  S
Co91         O95   1.992       .  S
Co92         O95   2.021       .  S
Co93         O95   2.023   1_545  S
Co94         O95   2.011       .  S
C96         C111   1.475       .  S
C97         C281   1.496       .  S
C98         C294   1.495       .  S
C99         C101   1.481       .  S
C100        C101   1.409       .  A
C100        C105   1.404       .  A
C100        F107   1.357       .  S
C101        C102   1.409       .  A
C102        C103   1.392       .  A
C102        F109   1.357       .  S
C103        C104   1.402       .  A
C103        F108   1.358       .  S
C104        C105   1.406       .  A
C105        F106   1.357       .  S
C110        C111   1.407       .  A
C110        C115   1.406       .  A
C110        F117   1.357       .  S
C111        C112   1.401       .  A
C112        C113   1.394       .  A
C112        F119   1.357       .  S
C113        C114   1.406       .  A
C113        F118   1.357       .  S
C114        C351   1.487   1_554  S
C114        C115   1.408       .  A
C115        F116   1.357       .  S
C120        C121   1.407       .  A
C120        C125   1.391       .  A
C120        F127   1.358       .  S
C121        C122   1.410       .  A
C122        C123   1.400       .  A
C122        F129   1.357       .  S
C123        C124   1.402       .  A
C123        F128   1.357       .  S
C124        C350   1.495       .  S
C124        C125   1.407       .  A
C125        F126   1.356       .  S
C130        C131   1.412       .  A
C130        C135   1.383       .  A
C130        F137   1.355   1_554  S
C131        C132   1.416       .  A
C132        C133   1.416       .  A
C132        F139   1.356       .  S
C133        C134   1.412       .  A
C133        F138   1.357       .  S
C134        C135   1.408       .  A
C135        F136   1.359       .  S
C140        C141   1.400       .  A
C140        C145   1.398       .  A
C140        F147   1.356       .  S
C141        C142   1.403       .  A
C142        C143   1.399       .  A
C142        F149   1.356       .  S
C143        C144   1.408       .  A
C143        F148   1.357       .  S
C144        C145   1.408       .  A
C145        F146   1.356       .  S
C150        C151   1.410       .  A
C150        C155   1.401       .  A
C150        F157   1.358       .  S
C151        C152   1.411       .  A
C152        C153   1.396       .  A
C152        F159   1.358       .  S
C153        C154   1.404       .  A
C153        F158   1.357       .  S
C154        C349   1.497   1_554  S
C154        C155   1.404       .  A
C155        F156   1.357       .  S
C160        C161   1.423       .  A
C160        C165   1.409       .  A
C160        F167   1.349       .  S
C161        C348   1.542       .  S
C161        C162   1.425       .  A
C162        C163   1.391       .  A
C162        F169   1.356       .  S
C163        C164   1.399       .  A
C163        F168   1.359       .  S
C164        C165   1.405       .  A
C165        F166   1.358       .  S
C170        C171   1.409       .  A
C170        C175   1.392       .  A
C170        F177   1.358       .  S
C171        C172   1.407       .  A
C172        C173   1.399       .  A
C172        F179   1.358       .  S
C173        C174   1.405       .  A
C173        F178   1.356       .  S
C174        C175   1.402       .  A
C175        F176   1.358       .  S
C180        C181   1.412       .  A
C180        C185   1.396       .  A
C180        F187   1.358       .  S
C181        C182   1.409       .  A
C182        C183   1.404       .  A
C182        F189   1.357       .  S
C183        C184   1.410       .  A
C183        F188   1.357       .  S
C184        C185   1.402       .  A
C185        F186   1.358       .  S
C190        C191   1.405       .  A
C190        C195   1.387       .  A
C190        F197   1.358   1_554  S
C191        C347   1.500   1_554  S
C191        C192   1.412       .  A
C192        C193   1.410       .  A
C192        F199   1.357       .  S
C193        C194   1.409       .  A
C193        F198   1.357       .  S
C194        C195   1.411       .  A
C195        F196   1.358       .  S
C200        C201   1.404       .  A
C200        C205   1.383       .  A
C200        F207   1.358       .  S
C201        C202   1.414       .  A
C202        C203   1.410       .  A
C202        F209   1.357       .  S
C203        C204   1.408       .  A
C203        F208   1.357       .  S
C204        C205   1.412       .  A
C205        F206   1.358       .  S
C210        C211   1.412       .  A
C210        C215   1.403       .  A
C210        F217   1.357       .  S
C211        C346   1.502       .  S
C211        C212   1.407       .  A
C212        C213   1.398       .  A
C212        F219   1.358       .  S
C213        C214   1.407       .  A
C213        F218   1.358       .  S
C214        C215   1.407       .  A
C215        F216   1.357       .  S
C220        C221   1.398       .  A
C220        C225   1.391       .  A
C220        F227   1.358       .  S
C221        C222   1.407       .  A
C222        C223   1.400       .  A
C222        F229   1.358       .  S
C223        C224   1.409       .  A
C223        F228   1.358       .  S
C224        C225   1.413       .  A
C225        F226   1.358       .  S
C230        C231   1.408       .  A
C230        C235   1.409       .  A
C230        F237   1.357       .  S
C231        C232   1.401       .  A
C232        C233   1.390       .  A
C232        F239   1.358       .  S
C233        C234   1.408       .  A
C233        F238   1.356       .  S
C234        C345   1.494       .  S
C234        C235   1.409       .  A
C235        F236   1.357       .  S
C240        C241   1.394       .  A
C240        C245   1.396       .  A
C240        F247   1.358   1_545  S
C241        C242   1.403       .  A
C242        C243   1.394       .  A
C242        F249   1.356       .  S
C243        C244   1.407       .  A
C243        F248   1.355       .  S
C244        C245   1.416       .  A
C245        F246   1.358       .  S
C250        C251   1.404       .  A
C250        C255   1.400       .  A
C250        F257   1.357       .  S
C251        C344   1.485   1_554  S
C251        C252   1.403       .  A
C252        C253   1.385       .  A
C252        F259   1.359       .  S
C253        C254   1.406       .  A
C253        F258   1.357       .  S
C254        C255   1.409       .  A
C255        F256   1.357       .  S
C260        C261   1.406       .  A
C260        C265   1.396       .  A
C260        F267   1.354       .  S
C261        C262   1.408       .  A
C262        C263   1.405       .  A
C262        F269   1.357       .  S
C263        C264   1.403       .  A
C263        F268   1.356       .  S
C264        C265   1.402       .  A
C265        F266   1.358       .  S
C270        C271   1.406       .  A
C270        C275   1.393       .  A
C270        F277   1.353       .  S
C271        C343   1.491       .  S
C271        C272   1.404       .  A
C272        C273   1.402       .  A
C272        F279   1.357       .  S
C273        C274   1.412       .  A
C273        F278   1.358       .  S
C274        C275   1.406       .  A
C275        F276   1.358       .  S
C280        C281   1.414       .  A
C280        C285   1.405       .  A
C280        F287   1.358       .  S
C281        C282   1.408       .  A
C282        C283   1.397       .  A
C282        F289   1.351       .  S
C283        C284   1.403       .  A
C283        F288   1.355       .  S
C284        C285   1.404       .  A
C285        F286   1.357       .  S
C290        C291   1.408       .  A
C290        C295   1.410       .  A
C290        F297   1.356       .  S
C291        C342   1.495       .  S
C291        C292   1.399       .  A
C292        C293   1.388       .  A
C292        F299   1.353       .  S
C293        C294   1.415       .  A
C293        F298   1.359       .  S
C294        C295   1.411       .  A
C295        F296   1.356       .  S
C300        C301   1.421       .  A
C300        C305   1.393       .  A
C300        F307   1.356       .  S
C301        C302   1.422       .  A
C302        C303   1.406       .  A
C302        F309   1.353       .  S
C303        C304   1.398       .  A
C303        F308   1.357       .  S
C304        C305   1.401       .  A
C305        F306   1.357       .  S
C310        C311   1.410       .  A
C310        C315   1.412       .  A
C310        F317   1.357       .  S
C311        C312   1.411       .  A
C312        C313   1.392       .  A
C312        F319   1.354       .  S
C313        C314   1.403       .  A
C313        F318   1.359       .  S
C314        C340   1.497       .  S
C314        C315   1.410       .  A
C315        F316   1.356       .  S
C320        C321   1.410       .  A
C320        C325   1.411       .  A
C320        F327   1.356       .  S
C321        C322   1.406       .  A
C322        C323   1.396       .  A
C322        F329   1.357       .  S
C323        C324   1.407       .  A
C323        F328   1.356       .  S
C324        C325   1.408       .  A
C325        F326   1.357       .  S
C330        C331   1.407       .  A
C330        C335   1.398       .  A
C330        F337   1.357       .  S
C331        C341   1.485       .  S
C331        C332   1.403       .  A
C332        C333   1.395       .  A
C332        F339   1.358       .  S
C333        C334   1.413       .  A
C333        F338   1.358       .  S
C334        C335   1.410       .  A
C335        F336   1.358       .  S
C340        C640   1.546   1_554  S
C341        C660   1.501       .  S
C342        C623   1.492   1_554  S
C342        C343   1.364       .  D
C343        C600   1.490   1_554  S
C344        C583   1.490       .  S
C345        C560   1.484       .  S
C346        C540   1.503   1_554  S
C346        C347   1.369   1_554  D
C347        C523   1.498       .  S
C348        C513   1.491       .  S
C349        C483   1.481       .  S
C350        C470   1.514       .  S
C351        C443   1.494       .  S
O352        C360   1.255       .  A
O352       Co372   1.998       .  S
O353        C361   1.265       .  A
O353       Co373   1.984   1_455  S
O354        C362   1.272       .  A
O354       Co374   2.018       .  S
O355        C363   1.248       .  A
O355       Co375   1.981       .  S
O356        C362   1.260       .  A
O356       Co373   1.963       .  S
O357        C363   1.254       .  A
O357       Co372   1.985   1_455  S
O358        C361   1.266       .  A
O358       Co375   1.993       .  S
O359        C360   1.246       .  A
O359       Co374   1.978       .  S
C360        C570   1.476       .  S
C361        C510   1.475       .  S
C362        C563   1.482       .  S
C363        C503   1.486       .  S
O364        C377   1.294       .  A
O364       Co372   2.057   1_455  S
O365        C378   1.270       .  A
O365       Co373   2.025       .  S
O366        C379   1.276       .  A
O366       Co374   1.914       .  S
O367        C380   1.264       .  A
O367       Co375   2.002       .  S
O368        C380   1.267       .  A
O368       Co373   1.990   1_455  S
O369        C379   1.292       .  A
O369       Co372   2.037       .  S
O370        C377   1.272       .  A
O370       Co375   1.895       .  S
O371        C378   1.259       .  A
O371       Co374   1.998       .  S
Co372       O376   2.235       .  S
Co373       O376   2.055       .  S
Co374       O376   1.946       .  S
Co375       O376   1.949   1_455  S
C377        C460   1.478       .  S
C378        C663   1.488       .  S
C379        C673   1.483       .  S
C380        C473   1.495       .  S
O381        C389   1.266       .  A
O381       Co401   1.976       .  S
O382        C390   1.252       .  A
O382       Co402   1.990       .  S
O383        C391   1.242       .  A
O383       Co403   1.968       .  S
O384        C392   1.271       .  A
O384       Co404   2.005       .  S
O385        C391   1.253       .  A
O385       Co402   2.006       .  S
O386        C392   1.268       .  A
O386       Co401   1.981       .  S
O387        C390   1.246       .  A
O387       Co404   1.971       .  S
O388        C389   1.276       .  A
O388       Co403   2.013       .  S
C389        C613   1.485       .  S
C390        C480   1.469       .  S
C391        C603   1.471       .  S
C392        C490   1.485       .  S
O393        C406   1.266       .  A
O393       Co401   1.993       .  S
O394        C407   1.284       .  A
O394       Co402   2.027       .  S
O395        C408   1.262       .  A
O395       Co403   1.997       .  S
O396        C409   1.275       .  A
O396       Co404   1.930       .  S
O397        C409   1.288       .  A
O397       Co402   2.043       .  S
O398        C408   1.268       .  A
O398       Co401   2.012       .  S
O399        C406   1.264       .  A
O399       Co404   1.999       .  S
O400        C407   1.278       .  A
O400       Co403   1.939       .  S
Co401       O405   2.070       .  S
Co402       O405   2.228       .  S
Co403       O405   1.973       .  S
Co404       O405   1.976       .  S
C406        C533   1.488       .  S
C407        C643   1.474       .  S
C408        C650   1.492       .  S
C409        C520   1.489       .  S
O410        C418   1.259       .  A
O410       Co430   1.987   1_545  S
O411        C419   1.270       .  A
O411       Co431   1.984       .  S
O412        C420   1.250       .  A
O412       Co432   1.937       .  S
O413        C421   1.271       .  A
O413       Co433   1.895       .  S
O414        C420   1.279       .  A
O414       Co431   2.048   1_545  S
O415        C421   1.300       .  A
O415       Co430   2.119       .  S
O416        C419   1.274       .  A
O416       Co433   2.000       .  S
O417        C418   1.254       .  A
O417       Co432   1.969       .  S
C418        C593   1.471       .  S
C419        C543   1.488       .  S
C420        C580   1.459       .  S
C421        C553   1.484       .  S
O422        C435   1.264       .  A
O422       Co430   1.876       .  S
O423        C436   1.258       .  A
O423       Co431   1.960   1_545  S
O424        C437   1.274       .  A
O424       Co432   1.996       .  S
O425        C438   1.268       .  A
O425       Co433   1.999       .  S
O426        C438   1.264       .  A
O426       Co431   1.981       .  S
O427        C437   1.276       .  A
O427       Co430   1.994   1_545  S
O428        C435   1.299       .  A
O428       Co433   2.128       .  S
O429        C436   1.277       .  A
O429       Co432   2.049       .  S
Co430       O434   1.992       .  S
Co431       O434   2.021       .  S
Co432       O434   2.023   1_545  S
Co433       O434   2.011       .  S
C435        C450   1.475       .  S
C436        C620   1.496       .  S
C437        C633   1.495       .  S
C438        C440   1.481       .  S
C439        C440   1.409       .  A
C439        C444   1.404       .  A
C439        F446   1.357       .  S
C440        C441   1.409       .  A
C441        C442   1.392       .  A
C441        F448   1.357       .  S
C442        C443   1.402       .  A
C442        F447   1.358       .  S
C443        C444   1.406       .  A
C444        F445   1.357       .  S
C449        C450   1.407       .  A
C449        C454   1.406       .  A
C449        F456   1.357       .  S
C450        C451   1.401       .  A
C451        C452   1.394       .  A
C451        F458   1.357       .  S
C452        C453   1.406       .  A
C452        F457   1.357       .  S
C453        C454   1.408       .  A
C454        F455   1.357       .  S
C459        C460   1.407       .  A
C459        C464   1.391       .  A
C459        F466   1.358       .  S
C460        C461   1.410       .  A
C461        C462   1.400       .  A
C461        F468   1.357       .  S
C462        C463   1.402       .  A
C462        F467   1.357       .  S
C463        C464   1.407       .  A
C464        F465   1.356       .  S
C469        C470   1.412       .  A
C469        C474   1.383       .  A
C469        F476   1.355       .  S
C470        C471   1.417       .  A
C471        C472   1.416       .  A
C471        F478   1.356       .  S
C472        C473   1.412       .  A
C472        F477   1.357       .  S
C473        C474   1.408       .  A
C474        F475   1.359       .  S
C479        C480   1.400       .  A
C479        C484   1.398       .  A
C479        F486   1.356       .  S
C480        C481   1.403       .  A
C481        C482   1.399       .  A
C481        F488   1.356       .  S
C482        C483   1.408       .  A
C482        F487   1.357       .  S
C483        C484   1.408       .  A
C484        F485   1.356       .  S
C489        C490   1.410       .  A
C489        C494   1.401       .  A
C489        F496   1.358       .  S
C490        C491   1.411       .  A
C491        C492   1.396       .  A
C491        F498   1.358       .  S
C492        C493   1.404       .  A
C492        F497   1.357       .  S
C493        C494   1.404       .  A
C494        F495   1.357       .  S
C499        C500   1.423       .  A
C499        C504   1.409       .  A
C499        F506   1.349       .  S
C500        C501   1.425       .  A
C501        C502   1.391       .  A
C501        F508   1.356   1_556  S
C502        C503   1.399       .  A
C502        F507   1.359       .  S
C503        C504   1.405       .  A
C504        F505   1.358       .  S
C509        C510   1.409       .  A
C509        C514   1.392       .  A
C509        F516   1.358       .  S
C510        C511   1.407       .  A
C511        C512   1.399       .  A
C511        F518   1.358       .  S
C512        C513   1.405       .  A
C512        F517   1.356       .  S
C513        C514   1.402       .  A
C514        F515   1.358       .  S
C519        C520   1.412       .  A
C519        C524   1.396       .  A
C519        F526   1.358       .  S
C520        C521   1.409       .  A
C521        C522   1.404       .  A
C521        F528   1.357       .  S
C522        C523   1.410       .  A
C522        F527   1.357       .  S
C523        C524   1.402       .  A
C524        F525   1.358       .  S
C529        C530   1.405       .  A
C529        C534   1.387       .  A
C529        F536   1.358       .  S
C530        C531   1.412       .  A
C531        C532   1.410       .  A
C531        F538   1.357       .  S
C532        C533   1.409       .  A
C532        F537   1.357       .  S
C533        C534   1.411       .  A
C534        F535   1.358       .  S
C539        C540   1.404       .  A
C539        C544   1.383       .  A
C539        F546   1.358   1_556  S
C540        C541   1.414       .  A
C541        C542   1.410       .  A
C541        F548   1.357       .  S
C542        C543   1.408       .  A
C542        F547   1.357       .  S
C543        C544   1.412       .  A
C544        F545   1.358       .  S
C549        C550   1.412       .  A
C549        C554   1.403       .  A
C549        F556   1.357       .  S
C550        C551   1.407       .  A
C551        C552   1.398       .  A
C551        F558   1.358       .  S
C552        C553   1.407       .  A
C552        F557   1.358       .  S
C553        C554   1.407       .  A
C554        F555   1.357       .  S
C559        C560   1.398       .  A
C559        C564   1.391       .  A
C559        F566   1.358       .  S
C560        C561   1.407       .  A
C561        C562   1.400       .  A
C561        F568   1.358       .  S
C562        C563   1.409       .  A
C562        F567   1.358       .  S
C563        C564   1.413       .  A
C564        F565   1.358       .  S
C569        C570   1.408       .  A
C569        C574   1.409       .  A
C569        F576   1.357       .  S
C570        C571   1.401       .  A
C571        C572   1.390       .  A
C571        F578   1.358       .  S
C572        C573   1.408       .  A
C572        F577   1.356   1_556  S
C573        C574   1.409       .  A
C574        F575   1.357       .  S
C579        C580   1.394       .  A
C579        C584   1.396       .  A
C579        F586   1.358   1_545  S
C580        C581   1.403       .  A
C581        C582   1.394       .  A
C581        F588   1.356       .  S
C582        C583   1.407       .  A
C582        F587   1.355       .  S
C583        C584   1.416       .  A
C584        F585   1.358       .  S
C589        C590   1.404       .  A
C589        C594   1.400       .  A
C589        F596   1.357       .  S
C590        C591   1.403       .  A
C591        C592   1.385       .  A
C591        F598   1.359       .  S
C592        C593   1.406       .  A
C592        F597   1.357       .  S
C593        C594   1.409       .  A
C594        F595   1.357       .  S
C599        C600   1.406       .  A
C599        C604   1.396       .  A
C599        F606   1.354       .  S
C600        C601   1.408       .  A
C601        C602   1.405       .  A
C601        F608   1.357       .  S
C602        C603   1.403       .  A
C602        F607   1.356       .  S
C603        C604   1.402       .  A
C604        F605   1.358       .  S
C609        C610   1.406       .  A
C609        C614   1.393       .  A
C609        F616   1.353       .  S
C610        C611   1.404       .  A
C611        C612   1.402       .  A
C611        F618   1.357       .  S
C612        C613   1.412       .  A
C612        F617   1.358       .  S
C613        C614   1.406       .  A
C614        F615   1.358       .  S
C619        C620   1.414       .  A
C619        C624   1.405       .  A
C619        F626   1.358       .  S
C620        C621   1.408       .  A
C621        C622   1.397       .  A
C621        F628   1.351       .  S
C622        C623   1.403       .  A
C622        F627   1.355       .  S
C623        C624   1.404       .  A
C624        F625   1.357       .  S
C629        C630   1.408       .  A
C629        C634   1.410       .  A
C629        F636   1.356       .  S
C630        C631   1.399       .  A
C631        C632   1.388       .  A
C631        F638   1.353       .  S
C632        C633   1.415       .  A
C632        F637   1.359       .  S
C633        C634   1.411       .  A
C634        F635   1.356       .  S
C639        C640   1.421       .  A
C639        C644   1.393       .  A
C639        F646   1.356       .  S
C640        C641   1.422       .  A
C641        C642   1.406       .  A
C641        F648   1.353       .  S
C642        C643   1.398       .  A
C642        F647   1.357       .  S
C643        C644   1.401       .  A
C644        F645   1.357       .  S
C649        C650   1.410       .  A
C649        C654   1.412       .  A
C649        F656   1.357       .  S
C650        C651   1.411       .  A
C651        C652   1.392       .  A
C651        F658   1.354       .  S
C652        C653   1.403       .  A
C652        F657   1.359       .  S
C653        C654   1.410       .  A
C654        F655   1.356       .  S
C659        C660   1.410       .  A
C659        C664   1.411       .  A
C659        F666   1.356       .  S
C660        C661   1.406       .  A
C661        C662   1.396       .  A
C661        F668   1.357       .  S
C662        C663   1.407       .  A
C662        F667   1.356       .  S
C663        C664   1.408       .  A
C664        F665   1.357       .  S
C669        C670   1.407       .  A
C669        C674   1.398       .  A
C669        F676   1.357       .  S
C670        C671   1.403       .  A
C671        C672   1.395       .  A
C671        F678   1.358       .  S
C672        C673   1.413       .  A
C672        F677   1.358       .  S
C673        C674   1.410       .  A
C674        F675   1.358       .  S
