geometry optimzed in LAMMPS
_audit_creation_date              2020-11-30 
_audit_creation_method            'lammps2cif' 
_symmetry_space_group_name_H-M    'P1' 
_symmetry_Int_Tables_number       1 
_symmetry_cell_setting            triclinic 
loop_ 
_symmetry_equiv_pos_as_xyz 
  x,y,z 
_cell_length_a                    23.104625088136746 
_cell_length_b                    23.05336600057727 
_cell_length_c                    30.504870920252444 
_cell_angle_alpha                 90.02966490006563 
_cell_angle_beta                  89.98277562079646 
_cell_angle_gamma                 119.90397491965228 
loop_ 
_atom_site_label 
_atom_site_type_symbol 
_atom_site_fract_x 
_atom_site_fract_y 
_atom_site_fract_z 
_atom_site_charge 
C1          C  0.17712589  0.33863047  0.36761733     0.00310
C2          C  0.34487279  0.17220240  0.17413432     0.00310
C3          C  0.17711600  0.33887999  0.18303595     0.00310
C4          C  0.34487896  0.17192074  0.37650831     0.00310
O5          O  0.05970015  0.19963974  0.07513045    -0.85380
C6          C  0.30655382  0.40238604  0.45898281     1.14660
O7          O  0.05090939  0.08400840  0.02528097    -1.33190
O8          O  0.31776374  0.45701653  0.07440630    -0.86870
O9          O  0.15702273  0.20063125  0.07497637    -0.87530
O10         O  0.09752117  0.04869108  0.11988216    -0.76360
O11         O  0.43401660  0.08340137  0.06742856    -0.98440
C12         C  0.43898749  0.35936900  0.10702348     1.24700
O13         O  0.05116957  0.46673261  0.02535955    -1.33340
Mn14       Mn  0.01195413  0.00560518  0.47587986     1.82060
O15         O  0.46915387  0.42002983  0.11993319    -0.75430
O16         O  0.31831830  0.36015838  0.07482468    -0.84830
C17         C  0.43867016  0.35908384  0.44375931     1.15790
C18         C  0.30656895  0.40293382  0.09168919     1.10510
O19         O  0.09751868  0.04816745  0.43075579    -0.76370
O20         O  0.43386108  0.46659388  0.02532503    -1.30060
O21         O  0.16733392  0.08361478  0.48314487    -0.95580
C22         C  0.11421903  0.40389894  0.09274715     1.09220
Mn23       Mn  0.37648673  0.35939874  0.02547821     1.48570
O24         O  0.15734381  0.45768421  0.07533716    -0.84780
Mn25       Mn  0.15782646  0.14202568  0.02515851     1.49560
O26         O  0.05985946  0.20002819  0.47567722    -0.88660
C27         C  0.43857412  0.07881300  0.10709384     1.22420
C28         C  0.11312191  0.21025028  0.45773938     1.14480
Mn29       Mn  0.01195621  0.00578098  0.07476375     1.80970
O30         O  0.43452637  0.35030710  0.48339386    -0.93810
Mn31       Mn  0.00125298  0.14158200  0.02532117     1.49260
C32         C  0.11346970  0.21059462  0.09262868     1.11000
Mn33       Mn  0.00202039  0.35965820  0.02532331     1.49930
C34         C  0.11455662  0.40389492  0.45815632     1.13900
O35         O  0.16733731  0.08405339  0.06748854    -0.99610
O36         O  0.31769775  0.35952592  0.47634169    -0.89270
C37         C  0.15814741  0.07928774  0.10715953     1.25180
O38         O  0.43477620  0.35049150  0.06739811    -1.00000
O39         O  0.31836972  0.45699497  0.47576294    -0.87400
O40         O  0.06078197  0.36063582  0.47546170    -0.87000
O41         O  0.15654570  0.19974306  0.47498869    -0.87030
Mn42       Mn  0.37625808  0.01612480  0.02517838     1.47860
O43         O  0.46898841  0.41970406  0.43080671    -0.75500
C44         C  0.15814484  0.07862871  0.44347592     1.18230
O45         O  0.46901915  0.04854100  0.11985618    -0.74230
O46         O  0.46917652  0.04837902  0.43069757    -0.73850
Mn47       Mn  0.15817457  0.01640081  0.02547405     1.51060
O48         O  0.06094694  0.36041781  0.07501402    -0.86200
O49         O  0.43425785  0.08346843  0.48307636    -0.93730
O50         O  0.15781751  0.45726187  0.47596508    -0.88740
C51         C  0.43888207  0.07884353  0.44341955     1.16020
C52         C  0.38130251  0.13634272  0.39463776    -0.10310
C53         C  0.40903271  0.10874149  0.41356728    -0.12040
C54         C  0.27304667  0.13542348  0.39463859    -0.10480
C55         C  0.21782530  0.10799352  0.41360141    -0.12040
C56         C  0.40822069  0.29890314  0.41434580    -0.10480
C57         C  0.38024852  0.24330787  0.39578243    -0.12040
C58         C  0.14292314  0.27227789  0.16570438    -0.10480
C59         C  0.12560259  0.23598945  0.13512274    -0.12040
C60         C  0.14471778  0.37318061  0.16574595    -0.10480
C61         C  0.12662559  0.39138551  0.13524559    -0.12040
C62         C  0.27876479  0.38921940  0.13304277    -0.10480
C63         C  0.24156874  0.37083057  0.16280076    -0.12040
C64         C  0.38112018  0.13648896  0.15589795    -0.10480
C65         C  0.40874449  0.10879008  0.13692792    -0.12040
C66         C  0.27304208  0.13592905  0.15599976    -0.10480
C67         C  0.21782622  0.10864239  0.13703336    -0.12040
C68         C  0.38043068  0.24363853  0.15497261    -0.10480
C69         C  0.40851513  0.29924624  0.13645497    -0.12040
C70         C  0.36408032  0.23105609  0.25199647    -0.10550
C71         C  0.34477816  0.17236136  0.22666194     0.11600
C72         C  0.32452888  0.11327720  0.25175746    -0.10550
C73         C  0.32453973  0.11321316  0.29877246    -0.10550
C74         C  0.34478957  0.17222658  0.32398034     0.11600
C75         C  0.36408311  0.23099090  0.29875702    -0.10550
H76         H  0.37909335  0.27820199  0.23590162     0.15580
H77         H  0.30860406  0.06638430  0.23487827     0.15580
H78         H  0.30862255  0.06627567  0.31556223     0.15580
H79         H  0.37909960  0.27809475  0.31493981     0.15580
C80         C  0.12487825  0.23552759  0.41523526    -0.10480
C81         C  0.14236212  0.27194001  0.38474076    -0.12040
C82         C  0.14526455  0.37338254  0.38508115    -0.10480
C83         C  0.12732902  0.39163974  0.41566385    -0.12040
C84         C  0.27873021  0.38816485  0.41763991    -0.10480
C85         C  0.24153977  0.36989057  0.38788400    -0.12040
C86         C  0.11796532  0.31785845  0.29775075    -0.10550
C87         C  0.17817153  0.33852695  0.32006588     0.11600
C88         C  0.23759295  0.35620212  0.29753638    -0.10550
C89         C  0.23756131  0.35617387  0.25307034    -0.10550
C90         C  0.17812419  0.33852373  0.23058634     0.11600
C91         C  0.11793000  0.31780356  0.25294312    -0.10550
H92         H  0.07143252  0.30214929  0.31511952     0.15580
H93         H  0.28431354  0.36961931  0.31374903     0.15580
H94         H  0.28425125  0.36956497  0.23681171     0.15580
H95         H  0.07136906  0.30206951  0.23561343     0.15580
C96         C  0.17712587  0.33863047  0.86761733     0.00310
C97         C  0.34487280  0.17220240  0.67413432     0.00310
C98         C  0.17711598  0.33887999  0.68303595     0.00310
C99         C  0.34487896  0.17192073  0.87650831     0.00310
O100        O  0.05970015  0.19963974  0.57513045    -0.85380
C101        C  0.30655382  0.40238603  0.95898281     1.14660
O102        O  0.05090939  0.08400841  0.52528097    -1.33190
O103        O  0.31776374  0.45701653  0.57440629    -0.86870
O104        O  0.15702274  0.20063125  0.57497638    -0.87530
O105        O  0.09752118  0.04869109  0.61988216    -0.76360
O106        O  0.43401659  0.08340137  0.56742855    -0.98440
C107        C  0.43898749  0.35936900  0.60702347     1.24700
O108        O  0.05116958  0.46673261  0.52535954    -1.33340
Mn109      Mn  0.01195412  0.00560517  0.97587987     1.82060
O110        O  0.46915387  0.42002983  0.61993318    -0.75430
O111        O  0.31831830  0.36015839  0.57482468    -0.84830
C112        C  0.43867017  0.35908383  0.94375932     1.15790
C113        C  0.30656894  0.40293382  0.59168918     1.10510
O114        O  0.09751867  0.04816745  0.93075579    -0.76370
O115        O  0.43386107  0.46659388  0.52532502    -1.30060
O116        O  0.16733391  0.08361477  0.98314487    -0.95580
C117        C  0.11421902  0.40389893  0.59274713     1.09220
Mn118      Mn  0.37648673  0.35939875  0.52547821     1.48570
O119        O  0.15734381  0.45768421  0.57533715    -0.84780
Mn120      Mn  0.15782647  0.14202568  0.52515851     1.49560
O121        O  0.05985945  0.20002819  0.97567722    -0.88660
C122        C  0.43857412  0.07881300  0.60709384     1.22420
C123        C  0.11312189  0.21025027  0.95773938     1.14480
Mn124      Mn  0.01195622  0.00578098  0.57476375     1.80970
O125        O  0.43452638  0.35030709  0.98339387    -0.93810
Mn126      Mn  0.00125298  0.14158200  0.52532117     1.49260
C127        C  0.11346971  0.21059462  0.59262868     1.11000
Mn128      Mn  0.00202039  0.35965821  0.52532330     1.49930
C129        C  0.11455661  0.40389492  0.95815634     1.13900
O130        O  0.16733732  0.08405339  0.56748854    -0.99610
O131        O  0.31769775  0.35952591  0.97634169    -0.89270
C132        C  0.15814742  0.07928775  0.60715953     1.25180
O133        O  0.43477620  0.35049150  0.56739810    -1.00000
O134        O  0.31836972  0.45699496  0.97576294    -0.87400
O135        O  0.06078197  0.36063581  0.97546172    -0.87000
O136        O  0.15654569  0.19974305  0.97498869    -0.87030
Mn137      Mn  0.37625808  0.01612479  0.52517837     1.47860
O138        O  0.46898842  0.41970405  0.93080672    -0.75500
C139        C  0.15814484  0.07862870  0.94347592     1.18230
O140        O  0.46901915  0.04854100  0.61985617    -0.74230
O141        O  0.46917652  0.04837901  0.93069757    -0.73850
Mn142      Mn  0.15817459  0.01640082  0.52547404     1.51060
O143        O  0.06094694  0.36041781  0.57501400    -0.86200
O144        O  0.43425785  0.08346843  0.98307636    -0.93730
O145        O  0.15781750  0.45726187  0.97596509    -0.88740
C146        C  0.43888207  0.07884352  0.94341955     1.16020
C147        C  0.38130251  0.13634272  0.89463776    -0.10310
C148        C  0.40903271  0.10874148  0.91356729    -0.12040
C149        C  0.27304667  0.13542348  0.89463859    -0.10480
C150        C  0.21782530  0.10799351  0.91360142    -0.12040
C151        C  0.40822070  0.29890313  0.91434581    -0.10480
C152        C  0.38024852  0.24330786  0.89578243    -0.12040
C153        C  0.14292313  0.27227789  0.66570438    -0.10480
C154        C  0.12560259  0.23598945  0.63512274    -0.12040
C155        C  0.14471776  0.37318061  0.66574594    -0.10480
C156        C  0.12662557  0.39138550  0.63524558    -0.12040
C157        C  0.27876477  0.38921940  0.63304277    -0.10480
C158        C  0.24156872  0.37083058  0.66280076    -0.12040
C159        C  0.38112019  0.13648896  0.65589795    -0.10480
C160        C  0.40874449  0.10879008  0.63692792    -0.12040
C161        C  0.27304209  0.13592905  0.65599976    -0.10480
C162        C  0.21782622  0.10864240  0.63703336    -0.12040
C163        C  0.38043069  0.24363854  0.65497261    -0.10480
C164        C  0.40851514  0.29924624  0.63645497    -0.12040
C165        C  0.36408033  0.23105610  0.75199648    -0.10550
C166        C  0.34477817  0.17236136  0.72666194     0.11600
C167        C  0.32452889  0.11327720  0.75175746    -0.10550
C168        C  0.32453974  0.11321316  0.79877246    -0.10550
C169        C  0.34478957  0.17222658  0.82398034     0.11600
C170        C  0.36408312  0.23099090  0.79875702    -0.10550
H171        H  0.37909336  0.27820200  0.73590162     0.15580
H172        H  0.30860407  0.06638431  0.73487827     0.15580
H173        H  0.30862256  0.06627568  0.81556223     0.15580
H174        H  0.37909960  0.27809475  0.81493981     0.15580
C175        C  0.12487823  0.23552758  0.91523526    -0.10480
C176        C  0.14236210  0.27194000  0.88474076    -0.12040
C177        C  0.14526453  0.37338253  0.88508116    -0.10480
C178        C  0.12732901  0.39163974  0.91566386    -0.12040
C179        C  0.27873020  0.38816484  0.91763992    -0.10480
C180        C  0.24153975  0.36989056  0.88788400    -0.12040
C181        C  0.11796530  0.31785846  0.79775075    -0.10550
C182        C  0.17817151  0.33852695  0.82006588     0.11600
C183        C  0.23759292  0.35620212  0.79753638    -0.10550
C184        C  0.23756129  0.35617388  0.75307034    -0.10550
C185        C  0.17812417  0.33852373  0.73058634     0.11600
C186        C  0.11792998  0.31780357  0.75294312    -0.10550
H187        H  0.07143250  0.30214930  0.81511952     0.15580
H188        H  0.28431352  0.36961931  0.81374903     0.15580
H189        H  0.28425123  0.36956497  0.73681171     0.15580
H190        H  0.07136904  0.30206952  0.73561343     0.15580
C191        C  0.17712590  0.83863047  0.36761733     0.00310
C192        C  0.34487279  0.67220240  0.17413432     0.00310
C193        C  0.17711599  0.83887999  0.18303595     0.00310
C194        C  0.34487896  0.67192074  0.37650831     0.00310
O195        O  0.05970015  0.69963974  0.07513045    -0.85380
C196        C  0.30655383  0.90238604  0.45898280     1.14660
O197        O  0.05090939  0.58400840  0.02528097    -1.33190
O198        O  0.31776374  0.95701654  0.07440629    -0.86870
O199        O  0.15702273  0.70063125  0.07497638    -0.87530
O200        O  0.09752117  0.54869109  0.11988216    -0.76360
O201        O  0.43401659  0.58340137  0.06742856    -0.98440
C202        C  0.43898750  0.85936900  0.10702348     1.24700
O203        O  0.05116957  0.96673261  0.02535955    -1.33340
Mn204      Mn  0.01195412  0.50560518  0.47587986     1.82060
O205        O  0.46915387  0.92002983  0.11993319    -0.75430
O206        O  0.31831831  0.86015839  0.07482469    -0.84830
C207        C  0.43867018  0.85908384  0.44375931     1.15790
C208        C  0.30656895  0.90293383  0.09168919     1.10510
O209        O  0.09751868  0.54816745  0.43075578    -0.76370
O210        O  0.43386108  0.96659388  0.02532503    -1.30060
O211        O  0.16733391  0.58361478  0.48314487    -0.95580
C212        C  0.11421902  0.90389893  0.09274715     1.09220
Mn213      Mn  0.37648673  0.85939875  0.02547822     1.48570
O214        O  0.15734380  0.95768421  0.07533716    -0.84780
Mn215      Mn  0.15782647  0.64202568  0.02515851     1.49560
O216        O  0.05985946  0.70002819  0.47567722    -0.88660
C217        C  0.43857411  0.57881300  0.10709384     1.22420
C218        C  0.11312191  0.71025028  0.45773938     1.14480
Mn219      Mn  0.01195622  0.50578098  0.07476375     1.80970
O220        O  0.43452638  0.85030710  0.48339386    -0.93810
Mn221      Mn  0.00125298  0.64158199  0.02532117     1.49260
C222        C  0.11346971  0.71059462  0.09262868     1.11000
Mn223      Mn  0.00202038  0.85965820  0.02532331     1.49930
C224        C  0.11455663  0.90389493  0.45815633     1.13900
O225        O  0.16733731  0.58405339  0.06748854    -0.99610
O226        O  0.31769776  0.85952591  0.47634169    -0.89270
C227        C  0.15814741  0.57928775  0.10715953     1.25180
O228        O  0.43477620  0.85049151  0.06739811    -1.00000
O229        O  0.31836973  0.95699496  0.47576293    -0.87400
O230        O  0.06078198  0.86063582  0.47546171    -0.87000
O231        O  0.15654571  0.69974306  0.47498869    -0.87030
Mn232      Mn  0.37625807  0.51612479  0.02517838     1.47860
O233        O  0.46898842  0.91970406  0.43080671    -0.75500
C234        C  0.15814484  0.57862870  0.44347592     1.18230
O235        O  0.46901915  0.54854100  0.11985618    -0.74230
O236        O  0.46917651  0.54837902  0.43069757    -0.73850
Mn237      Mn  0.15817458  0.51640081  0.02547405     1.51060
O238        O  0.06094693  0.86041781  0.07501402    -0.86200
O239        O  0.43425784  0.58346843  0.48307636    -0.93730
O240        O  0.15781752  0.95726188  0.47596508    -0.88740
C241        C  0.43888206  0.57884353  0.44341954     1.16020
C242        C  0.38130250  0.63634272  0.39463776    -0.10310
C243        C  0.40903270  0.60874148  0.41356728    -0.12040
C244        C  0.27304667  0.63542349  0.39463859    -0.10480
C245        C  0.21782530  0.60799352  0.41360141    -0.12040
C246        C  0.40822070  0.79890314  0.41434581    -0.10480
C247        C  0.38024852  0.74330787  0.39578243    -0.12040
C248        C  0.14292313  0.77227790  0.16570438    -0.10480
C249        C  0.12560259  0.73598945  0.13512274    -0.12040
C250        C  0.14471776  0.87318061  0.16574595    -0.10480
C251        C  0.12662557  0.89138550  0.13524559    -0.12040
C252        C  0.27876478  0.88921941  0.13304277    -0.10480
C253        C  0.24156873  0.87083058  0.16280076    -0.12040
C254        C  0.38112018  0.63648895  0.15589795    -0.10480
C255        C  0.40874449  0.60879008  0.13692792    -0.12040
C256        C  0.27304208  0.63592905  0.15599976    -0.10480
C257        C  0.21782622  0.60864240  0.13703336    -0.12040
C258        C  0.38043068  0.74363853  0.15497261    -0.10480
C259        C  0.40851513  0.79924624  0.13645497    -0.12040
C260        C  0.36408045  0.73105613  0.25199647    -0.10550
C261        C  0.34477816  0.67236136  0.22666194     0.11600
C262        C  0.32452876  0.61327718  0.25175746    -0.10550
C263        C  0.32453961  0.61321314  0.29877246    -0.10550
C264        C  0.34478957  0.67222659  0.32398034     0.11600
C265        C  0.36408325  0.73099093  0.29875702    -0.10550
H266        H  0.37909360  0.77820205  0.23590162     0.15580
H267        H  0.30860384  0.56638427  0.23487827     0.15580
H268        H  0.30862233  0.56627564  0.31556223     0.15580
H269        H  0.37909984  0.77809481  0.31493980     0.15580
C270        C  0.12487825  0.73552759  0.41523526    -0.10480
C271        C  0.14236213  0.77194000  0.38474076    -0.12040
C272        C  0.14526456  0.87338254  0.38508116    -0.10480
C273        C  0.12732904  0.89163974  0.41566385    -0.12040
C274        C  0.27873022  0.88816484  0.41763991    -0.10480
C275        C  0.24153978  0.86989057  0.38788400    -0.12040
C276        C  0.11796532  0.81785845  0.29775075    -0.10550
C277        C  0.17817153  0.83852695  0.32006588     0.11600
C278        C  0.23759295  0.85620212  0.29753637    -0.10550
C279        C  0.23756131  0.85617388  0.25307033    -0.10550
C280        C  0.17812418  0.83852373  0.23058634     0.11600
C281        C  0.11793000  0.81780357  0.25294313    -0.10550
H282        H  0.07143252  0.80214929  0.31511953     0.15580
H283        H  0.28431354  0.86961931  0.31374903     0.15580
H284        H  0.28425125  0.86956498  0.23681171     0.15580
H285        H  0.07136906  0.80206951  0.23561344     0.15580
C286        C  0.17712588  0.83863047  0.86761734     0.00310
C287        C  0.34487280  0.67220240  0.67413432     0.00310
C288        C  0.17711600  0.83887999  0.68303595     0.00310
C289        C  0.34487896  0.67192073  0.87650831     0.00310
O290        O  0.05970016  0.69963974  0.57513045    -0.85380
C291        C  0.30655382  0.90238604  0.95898281     1.14660
O292        O  0.05090939  0.58400841  0.52528097    -1.33190
O293        O  0.31776374  0.95701653  0.57440629    -0.86870
O294        O  0.15702274  0.70063124  0.57497638    -0.87530
O295        O  0.09752117  0.54869108  0.61988215    -0.76360
O296        O  0.43401659  0.58340137  0.56742855    -0.98440
C297        C  0.43898750  0.85936900  0.60702347     1.24700
O298        O  0.05116958  0.96673261  0.52535955    -1.33340
Mn299      Mn  0.01195412  0.50560517  0.97587987     1.82060
O300        O  0.46915388  0.92002984  0.61993318    -0.75430
O301        O  0.31831831  0.86015839  0.57482469    -0.84830
C302        C  0.43867017  0.85908383  0.94375931     1.15790
C303        C  0.30656895  0.90293382  0.59168918     1.10510
O304        O  0.09751867  0.54816744  0.93075579    -0.76370
O305        O  0.43386108  0.96659388  0.52532502    -1.30060
O306        O  0.16733391  0.58361478  0.98314487    -0.95580
C307        C  0.11421903  0.90389893  0.59274714     1.09220
Mn308      Mn  0.37648674  0.85939875  0.52547821     1.48570
O309        O  0.15734381  0.95768422  0.57533715    -0.84780
Mn310      Mn  0.15782647  0.64202568  0.52515851     1.49560
O311        O  0.05985945  0.70002818  0.97567722    -0.88660
C312        C  0.43857412  0.57881300  0.60709384     1.22420
C313        C  0.11312190  0.71025027  0.95773938     1.14480
Mn314      Mn  0.01195622  0.50578098  0.57476375     1.80970
O315        O  0.43452637  0.85030709  0.98339387    -0.93810
Mn316      Mn  0.00125299  0.64158200  0.52532117     1.49260
C317        C  0.11346972  0.71059462  0.59262868     1.11000
Mn318      Mn  0.00202040  0.85965821  0.52532330     1.49930
C319        C  0.11455661  0.90389492  0.95815634     1.13900
O320        O  0.16733731  0.58405338  0.56748854    -0.99610
O321        O  0.31769775  0.85952592  0.97634169    -0.89270
C322        C  0.15814742  0.57928774  0.60715953     1.25180
O323        O  0.43477621  0.85049150  0.56739810    -1.00000
O324        O  0.31836972  0.95699497  0.97576294    -0.87400
O325        O  0.06078197  0.86063581  0.97546171    -0.87000
O326        O  0.15654569  0.69974305  0.97498869    -0.87030
Mn327      Mn  0.37625807  0.51612480  0.52517837     1.47860
O328        O  0.46898842  0.91970405  0.93080672    -0.75500
C329        C  0.15814484  0.57862870  0.94347593     1.18230
O330        O  0.46901915  0.54854100  0.61985617    -0.74230
O331        O  0.46917651  0.54837901  0.93069757    -0.73850
Mn332      Mn  0.15817458  0.51640081  0.52547404     1.51060
O333        O  0.06094695  0.86041781  0.57501401    -0.86200
O334        O  0.43425784  0.58346843  0.98307636    -0.93730
O335        O  0.15781750  0.95726187  0.97596509    -0.88740
C336        C  0.43888207  0.57884352  0.94341955     1.16020
C337        C  0.38130251  0.63634271  0.89463776    -0.10310
C338        C  0.40903271  0.60874148  0.91356729    -0.12040
C339        C  0.27304667  0.63542348  0.89463859    -0.10480
C340        C  0.21782530  0.60799351  0.91360142    -0.12040
C341        C  0.40822070  0.79890313  0.91434581    -0.10480
C342        C  0.38024852  0.74330786  0.89578243    -0.12040
C343        C  0.14292314  0.77227789  0.66570438    -0.10480
C344        C  0.12560261  0.73598945  0.63512274    -0.12040
C345        C  0.14471778  0.87318061  0.66574594    -0.10480
C346        C  0.12662559  0.89138550  0.63524558    -0.12040
C347        C  0.27876479  0.88921940  0.63304277    -0.10480
C348        C  0.24156874  0.87083058  0.66280076    -0.12040
C349        C  0.38112019  0.63648896  0.65589795    -0.10480
C350        C  0.40874449  0.60879008  0.63692792    -0.12040
C351        C  0.27304209  0.63592905  0.65599976    -0.10480
C352        C  0.21782622  0.60864239  0.63703336    -0.12040
C353        C  0.38043069  0.74363854  0.65497261    -0.10480
C354        C  0.40851514  0.79924624  0.63645497    -0.12040
C355        C  0.36408028  0.73105608  0.75199648    -0.10550
C356        C  0.34477816  0.67236136  0.72666194     0.11600
C357        C  0.32452892  0.61327721  0.75175746    -0.10550
C358        C  0.32453977  0.61321316  0.79877246    -0.10550
C359        C  0.34478957  0.67222657  0.82398034     0.11600
C360        C  0.36408307  0.73099088  0.79875702    -0.10550
H361        H  0.37909328  0.77820197  0.73590162     0.15580
H362        H  0.30860414  0.56638432  0.73487827     0.15580
H363        H  0.30862263  0.56627568  0.81556223     0.15580
H364        H  0.37909952  0.77809473  0.81493981     0.15580
C365        C  0.12487824  0.73552759  0.91523526    -0.10480
C366        C  0.14236211  0.77194000  0.88474076    -0.12040
C367        C  0.14526454  0.87338254  0.88508116    -0.10480
C368        C  0.12732901  0.89163974  0.91566386    -0.12040
C369        C  0.27873020  0.88816484  0.91763992    -0.10480
C370        C  0.24153976  0.86989057  0.88788400    -0.12040
C371        C  0.11796532  0.81785846  0.79775075    -0.10550
C372        C  0.17817152  0.83852696  0.82006588     0.11600
C373        C  0.23759294  0.85620214  0.79753638    -0.10550
C374        C  0.23756131  0.85617389  0.75307034    -0.10550
C375        C  0.17812418  0.83852374  0.73058634     0.11600
C376        C  0.11793000  0.81780357  0.75294312    -0.10550
H377        H  0.07143251  0.80214930  0.81511952     0.15580
H378        H  0.28431354  0.86961933  0.81374904     0.15580
H379        H  0.28425125  0.86956500  0.73681171     0.15580
H380        H  0.07136906  0.80206952  0.73561343     0.15580
C381        C  0.67712588  0.33863048  0.36761733     0.00310
C382        C  0.84487280  0.17220240  0.17413432     0.00310
C383        C  0.67711599  0.33887999  0.18303595     0.00310
C384        C  0.84487896  0.17192074  0.37650831     0.00310
O385        O  0.55970016  0.19963974  0.07513045    -0.85380
C386        C  0.80655382  0.40238605  0.45898281     1.14660
O387        O  0.55090939  0.08400840  0.02528097    -1.33190
O388        O  0.81776374  0.45701653  0.07440630    -0.86870
O389        O  0.65702274  0.20063125  0.07497637    -0.87530
O390        O  0.59752117  0.04869109  0.11988216    -0.76360
O391        O  0.93401659  0.08340137  0.06742855    -0.98440
C392        C  0.93898749  0.35936900  0.10702348     1.24700
O393        O  0.55116957  0.46673261  0.02535955    -1.33340
Mn394      Mn  0.51195413  0.00560518  0.47587986     1.82060
O395        O  0.96915387  0.42002983  0.11993319    -0.75430
O396        O  0.81831830  0.36015838  0.07482469    -0.84830
C397        C  0.93867017  0.35908384  0.44375931     1.15790
C398        C  0.80656895  0.40293382  0.09168919     1.10510
O399        O  0.59751868  0.04816746  0.43075578    -0.76370
O400        O  0.93386107  0.46659388  0.02532503    -1.30060
O401        O  0.66733391  0.08361479  0.48314487    -0.95580
C402        C  0.61421903  0.40389894  0.09274715     1.09220
Mn403      Mn  0.87648673  0.35939874  0.02547822     1.48570
O404        O  0.65734381  0.45768421  0.07533716    -0.84780
Mn405      Mn  0.65782647  0.14202568  0.02515851     1.49560
O406        O  0.55985945  0.20002819  0.47567722    -0.88660
C407        C  0.93857411  0.07881300  0.10709384     1.22420
C408        C  0.61312190  0.21025028  0.45773938     1.14480
Mn409      Mn  0.51195622  0.00578098  0.07476375     1.80970
O410        O  0.93452637  0.35030710  0.48339386    -0.93810
Mn411      Mn  0.50125299  0.14158200  0.02532117     1.49260
C412        C  0.61346971  0.21059462  0.09262869     1.11000
Mn413      Mn  0.50202039  0.35965821  0.02532331     1.49930
C414        C  0.61455661  0.40389493  0.45815632     1.13900
O415        O  0.66733731  0.08405339  0.06748854    -0.99610
O416        O  0.81769775  0.35952592  0.47634168    -0.89270
C417        C  0.65814742  0.07928774  0.10715953     1.25180
O418        O  0.93477620  0.35049150  0.06739811    -1.00000
O419        O  0.81836972  0.45699497  0.47576294    -0.87400
O420        O  0.56078196  0.36063582  0.47546170    -0.87000
O421        O  0.65654569  0.19974306  0.47498869    -0.87030
Mn422      Mn  0.87625807  0.01612479  0.02517838     1.47860
O423        O  0.96898842  0.41970406  0.43080671    -0.75500
C424        C  0.65814484  0.07862871  0.44347592     1.18230
O425        O  0.96901914  0.04854100  0.11985617    -0.74230
O426        O  0.96917652  0.04837902  0.43069757    -0.73850
Mn427      Mn  0.65817458  0.01640081  0.02547405     1.51060
O428        O  0.56094694  0.36041781  0.07501402    -0.86200
O429        O  0.93425785  0.08346843  0.48307636    -0.93730
O430        O  0.65781750  0.45726188  0.47596508    -0.88740
C431        C  0.93888207  0.07884353  0.44341955     1.16020
C432        C  0.88130251  0.13634272  0.39463776    -0.10310
C433        C  0.90903271  0.10874149  0.41356729    -0.12040
C434        C  0.77304667  0.13542348  0.39463859    -0.10480
C435        C  0.71782530  0.10799352  0.41360141    -0.12040
C436        C  0.90822070  0.29890314  0.41434580    -0.10480
C437        C  0.88024852  0.24330787  0.39578243    -0.12040
C438        C  0.64292314  0.27227789  0.16570438    -0.10480
C439        C  0.62560260  0.23598945  0.13512274    -0.12040
C440        C  0.64471777  0.37318061  0.16574595    -0.10480
C441        C  0.62662558  0.39138551  0.13524558    -0.12040
C442        C  0.77876478  0.38921940  0.13304278    -0.10480
C443        C  0.74156874  0.37083058  0.16280076    -0.12040
C444        C  0.88112019  0.13648896  0.15589795    -0.10480
C445        C  0.90874449  0.10879008  0.13692792    -0.12040
C446        C  0.77304209  0.13592905  0.15599976    -0.10480
C447        C  0.71782622  0.10864239  0.13703336    -0.12040
C448        C  0.88043068  0.24363854  0.15497261    -0.10480
C449        C  0.90851513  0.29924624  0.13645498    -0.12040
C450        C  0.86408026  0.23105608  0.25199647    -0.10550
C451        C  0.84477816  0.17236136  0.22666194     0.11600
C452        C  0.82452893  0.11327721  0.25175746    -0.10550
C453        C  0.82453979  0.11321317  0.29877246    -0.10550
C454        C  0.84478957  0.17222658  0.32398034     0.11600
C455        C  0.86408306  0.23099088  0.29875702    -0.10550
H456        H  0.87909325  0.27820197  0.23590162     0.15580
H457        H  0.80860416  0.06638432  0.23487827     0.15580
H458        H  0.80862265  0.06627569  0.31556223     0.15580
H459        H  0.87909949  0.27809473  0.31493981     0.15580
C460        C  0.62487823  0.23552759  0.41523526    -0.10480
C461        C  0.64236211  0.27194001  0.38474076    -0.12040
C462        C  0.64526454  0.37338254  0.38508115    -0.10480
C463        C  0.62732901  0.39163975  0.41566384    -0.12040
C464        C  0.77873020  0.38816485  0.41763991    -0.10480
C465        C  0.74153975  0.36989057  0.38788400    -0.12040
C466        C  0.61796531  0.31785846  0.29775075    -0.10550
C467        C  0.67817152  0.33852695  0.32006588     0.11600
C468        C  0.73759294  0.35620212  0.29753638    -0.10550
C469        C  0.73756130  0.35617387  0.25307034    -0.10550
C470        C  0.67812418  0.33852373  0.23058634     0.11600
C471        C  0.61793000  0.31780357  0.25294312    -0.10550
H472        H  0.57143251  0.30214930  0.31511952     0.15580
H473        H  0.78431353  0.36961931  0.31374904     0.15580
H474        H  0.78425124  0.36956497  0.23681171     0.15580
H475        H  0.57136905  0.30206952  0.23561343     0.15580
C476        C  0.67712587  0.33863047  0.86761733     0.00310
C477        C  0.84487280  0.17220240  0.67413432     0.00310
C478        C  0.67711598  0.33887999  0.68303595     0.00310
C479        C  0.84487896  0.17192073  0.87650831     0.00310
O480        O  0.55970015  0.19963974  0.57513045    -0.85380
C481        C  0.80655382  0.40238603  0.95898281     1.14660
O482        O  0.55090939  0.08400841  0.52528097    -1.33190
O483        O  0.81776374  0.45701653  0.57440629    -0.86870
O484        O  0.65702273  0.20063125  0.57497638    -0.87530
O485        O  0.59752118  0.04869109  0.61988216    -0.76360
O486        O  0.93401660  0.08340137  0.56742855    -0.98440
C487        C  0.93898750  0.35936900  0.60702347     1.24700
O488        O  0.55116957  0.46673261  0.52535955    -1.33340
Mn489      Mn  0.51195412  0.00560517  0.97587987     1.82060
O490        O  0.96915387  0.42002983  0.61993318    -0.75430
O491        O  0.81831830  0.36015839  0.57482468    -0.84830
C492        C  0.93867017  0.35908383  0.94375932     1.15790
C493        C  0.80656894  0.40293382  0.59168918     1.10510
O494        O  0.59751868  0.04816745  0.93075579    -0.76370
O495        O  0.93386108  0.46659388  0.52532502    -1.30060
O496        O  0.66733391  0.08361477  0.98314487    -0.95580
C497        C  0.61421902  0.40389893  0.59274713     1.09220
Mn498      Mn  0.87648673  0.35939875  0.52547821     1.48570
O499        O  0.65734380  0.45768421  0.57533715    -0.84780
Mn500      Mn  0.65782647  0.14202569  0.52515851     1.49560
O501        O  0.55985946  0.20002819  0.97567722    -0.88660
C502        C  0.93857412  0.07881300  0.60709384     1.22420
C503        C  0.61312190  0.21025027  0.95773938     1.14480
Mn504      Mn  0.51195622  0.00578098  0.57476375     1.80970
O505        O  0.93452637  0.35030709  0.98339387    -0.93810
Mn506      Mn  0.50125298  0.14158200  0.52532117     1.49260
C507        C  0.61346970  0.21059462  0.59262868     1.11000
Mn508      Mn  0.50202038  0.35965821  0.52532330     1.49930
C509        C  0.61455662  0.40389492  0.95815634     1.13900
O510        O  0.66733732  0.08405340  0.56748854    -0.99610
O511        O  0.81769775  0.35952591  0.97634169    -0.89270
C512        C  0.65814742  0.07928775  0.60715953     1.25180
O513        O  0.93477620  0.35049150  0.56739810    -1.00000
O514        O  0.81836971  0.45699496  0.97576294    -0.87400
O515        O  0.56078197  0.36063581  0.97546172    -0.87000
O516        O  0.65654570  0.19974305  0.97498869    -0.87030
Mn517      Mn  0.87625808  0.01612479  0.52517838     1.47860
O518        O  0.96898842  0.41970405  0.93080672    -0.75500
C519        C  0.65814484  0.07862870  0.94347592     1.18230
O520        O  0.96901915  0.04854100  0.61985617    -0.74230
O521        O  0.96917651  0.04837901  0.93069757    -0.73850
Mn522      Mn  0.65817459  0.01640082  0.52547404     1.51060
O523        O  0.56094694  0.36041781  0.57501400    -0.86200
O524        O  0.93425784  0.08346843  0.98307636    -0.93730
O525        O  0.65781750  0.45726187  0.97596509    -0.88740
C526        C  0.93888207  0.07884352  0.94341955     1.16020
C527        C  0.88130251  0.13634271  0.89463776    -0.10310
C528        C  0.90903271  0.10874148  0.91356728    -0.12040
C529        C  0.77304667  0.13542348  0.89463859    -0.10480
C530        C  0.71782530  0.10799351  0.91360142    -0.12040
C531        C  0.90822070  0.29890313  0.91434581    -0.10480
C532        C  0.88024852  0.24330786  0.89578243    -0.12040
C533        C  0.64292312  0.27227789  0.66570438    -0.10480
C534        C  0.62560258  0.23598945  0.63512274    -0.12040
C535        C  0.64471775  0.37318061  0.66574594    -0.10480
C536        C  0.62662557  0.39138550  0.63524557    -0.12040
C537        C  0.77876477  0.38921940  0.63304277    -0.10480
C538        C  0.74156872  0.37083058  0.66280075    -0.12040
C539        C  0.88112019  0.13648896  0.65589795    -0.10480
C540        C  0.90874449  0.10879008  0.63692792    -0.12040
C541        C  0.77304209  0.13592905  0.65599976    -0.10480
C542        C  0.71782623  0.10864240  0.63703336    -0.12040
C543        C  0.88043069  0.24363854  0.65497260    -0.10480
C544        C  0.90851514  0.29924624  0.63645497    -0.12040
C545        C  0.86408040  0.23105611  0.75199647    -0.10550
C546        C  0.84477817  0.17236136  0.72666194     0.11600
C547        C  0.82452882  0.11327719  0.75175746    -0.10550
C548        C  0.82453968  0.11321315  0.79877246    -0.10550
C549        C  0.84478957  0.17222658  0.82398034     0.11600
C550        C  0.86408320  0.23099091  0.79875702    -0.10550
H551        H  0.87909350  0.27820203  0.73590162     0.15580
H552        H  0.80860396  0.06638429  0.73487827     0.15580
H553        H  0.80862245  0.06627565  0.81556223     0.15580
H554        H  0.87909974  0.27809478  0.81493981     0.15580
C555        C  0.62487823  0.23552758  0.91523526    -0.10480
C556        C  0.64236210  0.27194000  0.88474076    -0.12040
C557        C  0.64526453  0.37338253  0.88508116    -0.10480
C558        C  0.62732901  0.39163973  0.91566386    -0.12040
C559        C  0.77873019  0.38816484  0.91763992    -0.10480
C560        C  0.74153975  0.36989056  0.88788400    -0.12040
C561        C  0.61796530  0.31785846  0.79775075    -0.10550
C562        C  0.67817151  0.33852695  0.82006588     0.11600
C563        C  0.73759292  0.35620211  0.79753638    -0.10550
C564        C  0.73756129  0.35617387  0.75307033    -0.10550
C565        C  0.67812416  0.33852374  0.73058634     0.11600
C566        C  0.61792998  0.31780358  0.75294312    -0.10550
H567        H  0.57143250  0.30214930  0.81511952     0.15580
H568        H  0.78431352  0.36961930  0.81374903     0.15580
H569        H  0.78425123  0.36956497  0.73681171     0.15580
H570        H  0.57136904  0.30206953  0.73561343     0.15580
C571        C  0.67712589  0.83863047  0.36761733     0.00310
C572        C  0.84487280  0.67220240  0.17413432     0.00310
C573        C  0.67711600  0.83887999  0.18303595     0.00310
C574        C  0.84487896  0.67192074  0.37650831     0.00310
O575        O  0.55970015  0.69963974  0.07513045    -0.85380
C576        C  0.80655383  0.90238604  0.45898281     1.14660
O577        O  0.55090939  0.58400840  0.02528097    -1.33190
O578        O  0.81776374  0.95701653  0.07440629    -0.86870
O579        O  0.65702274  0.70063125  0.07497637    -0.87530
O580        O  0.59752117  0.54869109  0.11988216    -0.76360
O581        O  0.93401659  0.58340137  0.06742856    -0.98440
C582        C  0.93898749  0.85936900  0.10702348     1.24700
O583        O  0.55116958  0.96673261  0.02535955    -1.33340
Mn584      Mn  0.51195412  0.50560518  0.47587986     1.82060
O585        O  0.96915387  0.92002983  0.11993318    -0.75430
O586        O  0.81831830  0.86015838  0.07482468    -0.84830
C587        C  0.93867017  0.85908384  0.44375931     1.15790
C588        C  0.80656894  0.90293382  0.09168918     1.10510
O589        O  0.59751867  0.54816745  0.43075578    -0.76370
O590        O  0.93386107  0.96659388  0.02532502    -1.30060
O591        O  0.66733391  0.58361478  0.48314487    -0.95580
C592        C  0.61421903  0.90389893  0.09274715     1.09220
Mn593      Mn  0.87648673  0.85939874  0.02547821     1.48570
O594        O  0.65734381  0.95768421  0.07533716    -0.84780
Mn595      Mn  0.65782647  0.64202568  0.02515851     1.49560
O596        O  0.55985945  0.70002819  0.47567722    -0.88660
C597        C  0.93857411  0.57881300  0.10709384     1.22420
C598        C  0.61312190  0.71025028  0.45773938     1.14480
Mn599      Mn  0.51195622  0.50578098  0.07476375     1.80970
O600        O  0.93452638  0.85030710  0.48339386    -0.93810
Mn601      Mn  0.50125298  0.64158200  0.02532117     1.49260
C602        C  0.61346971  0.71059462  0.09262868     1.11000
Mn603      Mn  0.50202039  0.85965820  0.02532331     1.49930
C604        C  0.61455663  0.90389493  0.45815633     1.13900
O605        O  0.66733731  0.58405339  0.06748854    -0.99610
O606        O  0.81769776  0.85952591  0.47634169    -0.89270
C607        C  0.65814742  0.57928775  0.10715953     1.25180
O608        O  0.93477620  0.85049150  0.06739811    -1.00000
O609        O  0.81836973  0.95699496  0.47576293    -0.87400
O610        O  0.56078198  0.86063583  0.47546170    -0.87000
O611        O  0.65654569  0.69974306  0.47498869    -0.87030
Mn612      Mn  0.87625807  0.51612479  0.02517838     1.47860
O613        O  0.96898842  0.91970406  0.43080671    -0.75500
C614        C  0.65814484  0.57862871  0.44347592     1.18230
O615        O  0.96901915  0.54854100  0.11985618    -0.74230
O616        O  0.96917652  0.54837902  0.43069757    -0.73850
Mn617      Mn  0.65817458  0.51640081  0.02547405     1.51060
O618        O  0.56094694  0.86041781  0.07501402    -0.86200
O619        O  0.93425785  0.58346844  0.48307636    -0.93730
O620        O  0.65781752  0.95726189  0.47596508    -0.88740
C621        C  0.93888207  0.57884353  0.44341955     1.16020
C622        C  0.88130251  0.63634272  0.39463776    -0.10310
C623        C  0.90903271  0.60874149  0.41356728    -0.12040
C624        C  0.77304667  0.63542349  0.39463859    -0.10480
C625        C  0.71782530  0.60799352  0.41360141    -0.12040
C626        C  0.90822070  0.79890314  0.41434580    -0.10480
C627        C  0.88024852  0.74330787  0.39578243    -0.12040
C628        C  0.64292314  0.77227790  0.16570438    -0.10480
C629        C  0.62560260  0.73598945  0.13512274    -0.12040
C630        C  0.64471778  0.87318061  0.16574595    -0.10480
C631        C  0.62662558  0.89138550  0.13524558    -0.12040
C632        C  0.77876479  0.88921941  0.13304277    -0.10480
C633        C  0.74156874  0.87083058  0.16280076    -0.12040
C634        C  0.88112018  0.63648896  0.15589795    -0.10480
C635        C  0.90874449  0.60879008  0.13692792    -0.12040
C636        C  0.77304208  0.63592905  0.15599976    -0.10480
C637        C  0.71782622  0.60864239  0.13703336    -0.12040
C638        C  0.88043068  0.74363853  0.15497261    -0.10480
C639        C  0.90851513  0.79924624  0.13645497    -0.12040
C640        C  0.86408037  0.73105611  0.25199648    -0.10550
C641        C  0.84477816  0.67236136  0.22666194     0.11600
C642        C  0.82452884  0.61327720  0.25175746    -0.10550
C643        C  0.82453970  0.61321315  0.29877246    -0.10550
C644        C  0.84478957  0.67222658  0.32398034     0.11600
C645        C  0.86408316  0.73099091  0.29875702    -0.10550
H646        H  0.87909344  0.77820202  0.23590162     0.15580
H647        H  0.80860399  0.56638429  0.23487827     0.15580
H648        H  0.80862248  0.56627566  0.31556223     0.15580
H649        H  0.87909968  0.77809477  0.31493981     0.15580
C650        C  0.62487824  0.73552759  0.41523526    -0.10480
C651        C  0.64236212  0.77194000  0.38474076    -0.12040
C652        C  0.64526456  0.87338254  0.38508116    -0.10480
C653        C  0.62732903  0.89163975  0.41566385    -0.12040
C654        C  0.77873022  0.88816484  0.41763991    -0.10480
C655        C  0.74153977  0.86989056  0.38788400    -0.12040
C656        C  0.61796533  0.81785845  0.29775075    -0.10550
C657        C  0.67817153  0.83852695  0.32006588     0.11600
C658        C  0.73759295  0.85620212  0.29753638    -0.10550
C659        C  0.73756131  0.85617388  0.25307034    -0.10550
C660        C  0.67812419  0.83852373  0.23058634     0.11600
C661        C  0.61793001  0.81780356  0.25294313    -0.10550
H662        H  0.57143252  0.80214929  0.31511952     0.15580
H663        H  0.78431354  0.86961931  0.31374903     0.15580
H664        H  0.78425125  0.86956498  0.23681171     0.15580
H665        H  0.57136906  0.80206951  0.23561343     0.15580
C666        C  0.67712587  0.83863047  0.86761733     0.00310
C667        C  0.84487280  0.67220239  0.67413432     0.00310
C668        C  0.67711599  0.83887999  0.68303595     0.00310
C669        C  0.84487896  0.67192073  0.87650831     0.00310
O670        O  0.55970015  0.69963974  0.57513045    -0.85380
C671        C  0.80655381  0.90238604  0.95898281     1.14660
O672        O  0.55090939  0.58400841  0.52528097    -1.33190
O673        O  0.81776374  0.95701653  0.57440629    -0.86870
O674        O  0.65702273  0.70063124  0.57497638    -0.87530
O675        O  0.59752117  0.54869108  0.61988215    -0.76360
O676        O  0.93401660  0.58340137  0.56742855    -0.98440
C677        C  0.93898750  0.85936900  0.60702347     1.24700
O678        O  0.55116958  0.96673262  0.52535955    -1.33340
Mn679      Mn  0.51195412  0.50560517  0.97587987     1.82060
O680        O  0.96915388  0.92002983  0.61993318    -0.75430
O681        O  0.81831831  0.86015838  0.57482469    -0.84830
C682        C  0.93867017  0.85908383  0.94375931     1.15790
C683        C  0.80656895  0.90293382  0.59168918     1.10510
O684        O  0.59751867  0.54816745  0.93075579    -0.76370
O685        O  0.93386108  0.96659388  0.52532502    -1.30060
O686        O  0.66733391  0.58361477  0.98314487    -0.95580
C687        C  0.61421904  0.90389894  0.59274714     1.09220
Mn688      Mn  0.87648674  0.85939875  0.52547821     1.48570
O689        O  0.65734381  0.95768422  0.57533715    -0.84780
Mn690      Mn  0.65782647  0.64202568  0.52515851     1.49560
O691        O  0.55985945  0.70002819  0.97567722    -0.88660
C692        C  0.93857412  0.57881300  0.60709384     1.22420
C693        C  0.61312190  0.71025027  0.95773938     1.14480
Mn694      Mn  0.51195622  0.50578098  0.57476375     1.80970
O695        O  0.93452637  0.85030709  0.98339386    -0.93810
Mn696      Mn  0.50125298  0.64158200  0.52532117     1.49260
C697        C  0.61346970  0.71059462  0.59262868     1.11000
Mn698      Mn  0.50202040  0.85965821  0.52532330     1.49930
C699        C  0.61455661  0.90389492  0.95815634     1.13900
O700        O  0.66733731  0.58405339  0.56748854    -0.99610
O701        O  0.81769775  0.85952591  0.97634169    -0.89270
C702        C  0.65814741  0.57928774  0.60715953     1.25180
O703        O  0.93477621  0.85049150  0.56739810    -1.00000
O704        O  0.81836971  0.95699496  0.97576294    -0.87400
O705        O  0.56078197  0.86063581  0.97546172    -0.87000
O706        O  0.65654569  0.69974305  0.97498869    -0.87030
Mn707      Mn  0.87625808  0.51612480  0.52517837     1.47860
O708        O  0.96898842  0.91970405  0.93080672    -0.75500
C709        C  0.65814484  0.57862870  0.94347593     1.18230
O710        O  0.96901915  0.54854100  0.61985617    -0.74230
O711        O  0.96917651  0.54837901  0.93069757    -0.73850
Mn712      Mn  0.65817457  0.51640081  0.52547404     1.51060
O713        O  0.56094695  0.86041782  0.57501401    -0.86200
O714        O  0.93425784  0.58346843  0.98307636    -0.93730
O715        O  0.65781750  0.95726187  0.97596509    -0.88740
C716        C  0.93888207  0.57884352  0.94341955     1.16020
C717        C  0.88130251  0.63634271  0.89463776    -0.10310
C718        C  0.90903271  0.60874148  0.91356729    -0.12040
C719        C  0.77304667  0.63542348  0.89463859    -0.10480
C720        C  0.71782530  0.60799351  0.91360142    -0.12040
C721        C  0.90822070  0.79890313  0.91434581    -0.10480
C722        C  0.88024852  0.74330786  0.89578243    -0.12040
C723        C  0.64292313  0.77227790  0.66570438    -0.10480
C724        C  0.62560259  0.73598945  0.63512274    -0.12040
C725        C  0.64471777  0.87318062  0.66574594    -0.10480
C726        C  0.62662559  0.89138551  0.63524558    -0.12040
C727        C  0.77876478  0.88921940  0.63304277    -0.10480
C728        C  0.74156873  0.87083057  0.66280076    -0.12040
C729        C  0.88112019  0.63648895  0.65589795    -0.10480
C730        C  0.90874449  0.60879008  0.63692792    -0.12040
C731        C  0.77304209  0.63592904  0.65599975    -0.10480
C732        C  0.71782622  0.60864239  0.63703336    -0.12040
C733        C  0.88043069  0.74363853  0.65497261    -0.10480
C734        C  0.90851514  0.79924623  0.63645497    -0.12040
C735        C  0.86408033  0.73105609  0.75199647    -0.10550
C736        C  0.84477816  0.67236135  0.72666194     0.11600
C737        C  0.82452887  0.61327719  0.75175746    -0.10550
C738        C  0.82453972  0.61321315  0.79877246    -0.10550
C739        C  0.84478957  0.67222657  0.82398034     0.11600
C740        C  0.86408313  0.73099089  0.79875702    -0.10550
H741        H  0.87909338  0.77820199  0.73590162     0.15580
H742        H  0.80860404  0.56638429  0.73487827     0.15580
H743        H  0.80862253  0.56627566  0.81556223     0.15580
H744        H  0.87909962  0.77809475  0.81493981     0.15580
C745        C  0.62487823  0.73552758  0.91523526    -0.10480
C746        C  0.64236210  0.77194000  0.88474076    -0.12040
C747        C  0.64526453  0.87338253  0.88508116    -0.10480
C748        C  0.62732901  0.89163974  0.91566385    -0.12040
C749        C  0.77873019  0.88816484  0.91763992    -0.10480
C750        C  0.74153975  0.86989056  0.88788400    -0.12040
C751        C  0.61796531  0.81785846  0.79775075    -0.10550
C752        C  0.67817151  0.83852695  0.82006588     0.11600
C753        C  0.73759293  0.85620213  0.79753638    -0.10550
C754        C  0.73756130  0.85617389  0.75307034    -0.10550
C755        C  0.67812417  0.83852374  0.73058634     0.11600
C756        C  0.61792999  0.81780357  0.75294312    -0.10550
H757        H  0.57143250  0.80214930  0.81511952     0.15580
H758        H  0.78431352  0.86961932  0.81374903     0.15580
H759        H  0.78425124  0.86956499  0.73681171     0.15580
H760        H  0.57136905  0.80206952  0.73561343     0.15580
loop_ 
_geom_bond_atom_site_label_1 
_geom_bond_atom_site_label_2 
_geom_bond_distance 
_geom_bond_site_symmetry_2 
_ccdc_geom_bond_type 
C1           C81   1.432       .  S
C1           C82   1.434       .  S
C1           C85   1.431       .  S
C1           C87   1.451       .  S
C2           C64   1.541       .  S
C2           C66   1.541       .  S
C2           C68   1.543       .  S
C2           C71   1.602       .  S
C3           C58   1.432       .  S
C3           C60   1.433       .  S
C3           C63   1.431       .  S
C3           C90   1.451       .  S
C4           C52   1.541       .  S
C4           C54   1.541       .  S
C4           C57   1.543       .  S
C4           C74   1.602       .  S
O5           C32   1.257       .  A
O5          Mn31   2.030       .  S
C6           O39   1.256       .  A
C6           O36   1.256       .  A
C6           C84   1.379       .  S
O7          Mn25   2.144       .  S
O7          Mn29   2.174       .  S
O7          Mn31   2.144       .  S
O7         Mn109   2.173   1_554  S
O8           C18   1.256       .  A
O8         Mn232   2.026       .  S
O9           C32   1.259       .  A
O9          Mn25   2.039       .  S
O10          C37   1.275       .  A
O10         Mn29   2.198       .  S
O11         Mn42   1.945       .  S
O11        Mn411   1.946       .  S
O11          C27   1.224       .  S
C12          O15   1.274       .  A
C12          C69   1.500       .  S
C12          O38   1.222       .  S
O13         Mn33   2.142       .  S
O13        Mn299   2.171   1_554  S
O13        Mn237   2.145       .  S
O13        Mn219   2.171       .  S
Mn14         O19   2.198       .  S
Mn14        O613   2.199   1_445  S
Mn14        O426   2.196   1_455  S
Mn14        O102   2.173       .  S
Mn14        O298   2.171   1_545  S
Mn14        O685   2.173   1_445  S
O15        Mn599   2.199       .  S
O16          C18   1.256       .  A
O16         Mn23   2.024       .  S
C17          O43   1.274       .  A
C17          C56   1.500       .  S
C17          O30   1.222       .  S
C18          C62   1.379       .  S
O19          C44   1.275       .  A
O20         Mn23   2.144       .  S
O20        Mn679   2.173   1_554  S
O20        Mn232   2.143       .  S
O20        Mn599   2.173       .  S
O21        Mn120   1.949       .  S
O21        Mn142   1.946       .  S
O21          C44   1.224       .  S
C22          O48   1.258       .  A
C22          O24   1.257       .  A
C22          C61   1.389       .  S
Mn23        O131   2.024   1_554  S
Mn23         O38   1.941       .  S
Mn23        O125   1.941   1_554  S
O24        Mn237   2.030       .  S
Mn25        O136   2.038   1_554  S
Mn25         O35   1.948       .  S
Mn25        O116   1.949   1_554  S
O26          C28   1.257       .  A
O26        Mn126   2.031       .  S
C27          O45   1.274       .  A
C27          C65   1.502       .  S
C28          O41   1.259       .  A
C28          C80   1.392       .  S
Mn29        O585   2.199   1_445  S
Mn29        O425   2.196   1_455  S
Mn29        O203   2.171   1_545  S
Mn29        O590   2.173   1_445  S
O30        Mn118   1.941       .  S
O30        Mn508   1.944       .  S
Mn31        O121   2.031   1_554  S
Mn31        O391   1.946   1_455  S
Mn31        O524   1.945   1_454  S
C32          C59   1.392       .  S
Mn33         O48   2.032       .  S
Mn33        O135   2.031   1_554  S
Mn33        O505   1.944   1_454  S
Mn33        O418   1.944   1_455  S
C34          O40   1.258       .  A
C34          O50   1.257       .  A
C34          C83   1.389       .  S
O35         Mn47   1.946       .  S
O35          C37   1.224       .  S
O36        Mn118   2.024       .  S
C37          C67   1.503       .  S
O38        Mn413   1.944       .  S
O39        Mn327   2.025       .  S
O40        Mn128   2.031       .  S
O41        Mn120   2.038       .  S
Mn42        O198   2.026   1_545  S
Mn42        O324   2.025   1_544  S
Mn42        O210   2.143   1_545  S
Mn42        O144   1.945   1_554  S
O43        Mn584   2.199       .  S
C44          C55   1.503       .  S
O45        Mn409   2.196       .  S
O46          C51   1.274       .  A
O46        Mn394   2.196       .  S
Mn47        O214   2.030   1_545  S
Mn47        O335   2.031   1_544  S
Mn47        O203   2.145   1_545  S
Mn47        O116   1.946   1_554  S
O49        Mn506   1.945       .  S
O49        Mn137   1.945       .  S
O49          C51   1.224       .  S
O50        Mn332   2.031       .  S
C51          C53   1.502       .  S
C52          C53   1.247       .  T
C54          C55   1.248       .  T
C56          C57   1.247       .  T
C58          C59   1.181       .  T
C60          C61   1.180       .  T
C62          C63   1.174       .  T
C64          C65   1.247       .  T
C66          C67   1.248       .  T
C68          C69   1.247       .  T
C70          C71   1.423       .  A
C70          C75   1.426       .  A
C70          H76   1.080       .  S
C71          C72   1.423       .  A
C72          C73   1.434       .  A
C72          H77   1.083       .  S
C73          C74   1.423       .  A
C73          H78   1.083       .  S
C74          C75   1.423       .  A
C75          H79   1.080       .  S
C80          C81   1.181       .  T
C82          C83   1.180       .  T
C84          C85   1.174       .  T
C86          C87   1.402       .  A
C86          C91   1.367       .  A
C86          H92   1.086       .  S
C87          C88   1.402       .  A
C88          C89   1.356       .  A
C88          H93   1.083       .  S
C89          C90   1.402       .  A
C89          H94   1.083       .  S
C90          C91   1.402       .  A
C91          H95   1.086       .  S
C96         C176   1.432       .  S
C96         C177   1.434       .  S
C96         C180   1.431       .  S
C96         C182   1.451       .  S
C97         C159   1.541       .  S
C97         C161   1.541       .  S
C97         C163   1.543       .  S
C97         C166   1.602       .  S
C98         C153   1.432       .  S
C98         C155   1.433       .  S
C98         C158   1.431       .  S
C98         C185   1.451       .  S
C99         C147   1.541       .  S
C99         C149   1.541       .  S
C99         C152   1.543       .  S
C99         C169   1.602       .  S
O100        C127   1.257       .  A
O100       Mn126   2.030       .  S
C101        O134   1.256       .  A
C101        O131   1.256       .  A
C101        C179   1.379       .  S
O102       Mn120   2.144       .  S
O102       Mn124   2.174       .  S
O102       Mn126   2.144       .  S
O103        C113   1.256       .  A
O103       Mn327   2.026       .  S
O104        C127   1.259       .  A
O104       Mn120   2.039       .  S
O105        C132   1.275       .  A
O105       Mn124   2.198       .  S
O106       Mn137   1.945       .  S
O106       Mn506   1.946       .  S
O106        C122   1.224       .  S
C107        O110   1.274       .  A
C107        C164   1.500       .  S
C107        O133   1.222       .  S
O108       Mn128   2.142       .  S
O108       Mn204   2.171       .  S
O108       Mn332   2.145       .  S
O108       Mn314   2.171       .  S
Mn109       O708   2.199   1_445  S
Mn109       O114   2.198       .  S
Mn109       O521   2.196   1_455  S
Mn109       O203   2.171   1_546  S
Mn109       O590   2.173   1_446  S
O110       Mn694   2.199       .  S
O111        C113   1.256       .  A
O111       Mn118   2.024       .  S
C112        O138   1.274       .  A
C112        C151   1.500       .  S
C112        O125   1.222       .  S
C113        C157   1.379       .  S
O114        C139   1.275       .  A
O115       Mn584   2.173       .  S
O115       Mn118   2.144       .  S
O115       Mn327   2.143       .  S
O115       Mn694   2.173       .  S
O116        C139   1.224       .  S
C117        O143   1.258       .  A
C117        O119   1.257       .  A
C117        C156   1.389       .  S
Mn118       O133   1.941       .  S
O119       Mn332   2.030       .  S
Mn120       O130   1.948       .  S
O121        C123   1.257       .  A
C122        O140   1.274       .  A
C122        C160   1.502       .  S
C123        O136   1.259       .  A
C123        C175   1.392       .  S
Mn124       O680   2.199   1_445  S
Mn124       O520   2.196   1_455  S
Mn124       O298   2.171   1_545  S
Mn124       O685   2.173   1_445  S
O125       Mn413   1.944   1_556  S
Mn126       O486   1.946   1_455  S
Mn126       O429   1.945   1_455  S
C127        C154   1.392       .  S
Mn128       O143   2.032       .  S
Mn128       O410   1.944   1_455  S
Mn128       O513   1.944   1_455  S
C129        O135   1.258       .  A
C129        O145   1.257       .  A
C129        C178   1.389       .  S
O130       Mn142   1.946       .  S
O130        C132   1.224       .  S
C132        C162   1.503       .  S
O133       Mn508   1.944       .  S
O134       Mn232   2.025   1_556  S
Mn137       O293   2.026   1_545  S
Mn137       O229   2.025   1_545  S
Mn137       O305   2.143   1_545  S
O138       Mn679   2.199       .  S
C139        C150   1.503       .  S
O140       Mn504   2.196       .  S
O141        C146   1.274       .  A
O141       Mn489   2.196       .  S
Mn142       O309   2.030   1_545  S
Mn142       O240   2.031   1_545  S
Mn142       O298   2.145   1_545  S
O144       Mn411   1.945   1_556  S
O144        C146   1.224       .  S
O145       Mn237   2.031   1_556  S
C146        C148   1.502       .  S
C147        C148   1.247       .  T
C149        C150   1.248       .  T
C151        C152   1.247       .  T
C153        C154   1.181       .  T
C155        C156   1.180       .  T
C157        C158   1.174       .  T
C159        C160   1.247       .  T
C161        C162   1.248       .  T
C163        C164   1.247       .  T
C165        C166   1.423       .  A
C165        C170   1.426       .  A
C165        H171   1.080       .  S
C166        C167   1.423       .  A
C167        C168   1.434       .  A
C167        H172   1.083       .  S
C168        C169   1.423       .  A
C168        H173   1.083       .  S
C169        C170   1.423       .  A
C170        H174   1.080       .  S
C175        C176   1.181       .  T
C177        C178   1.180       .  T
C179        C180   1.174       .  T
C181        C182   1.402       .  A
C181        C186   1.367       .  A
C181        H187   1.086       .  S
C182        C183   1.402       .  A
C183        C184   1.356       .  A
C183        H188   1.083       .  S
C184        C185   1.402       .  A
C184        H189   1.083       .  S
C185        C186   1.402       .  A
C186        H190   1.086       .  S
C191        C271   1.432       .  S
C191        C272   1.434       .  S
C191        C275   1.431       .  S
C191        C277   1.451       .  S
C192        C254   1.541       .  S
C192        C256   1.541       .  S
C192        C258   1.543       .  S
C192        C261   1.602       .  S
C193        C248   1.432       .  S
C193        C250   1.433       .  S
C193        C253   1.431       .  S
C193        C280   1.451       .  S
C194        C242   1.541       .  S
C194        C244   1.541       .  S
C194        C247   1.543       .  S
C194        C264   1.602       .  S
O195        C222   1.257       .  A
O195       Mn221   2.030       .  S
C196        O229   1.256       .  A
C196        O226   1.256       .  A
C196        C274   1.379       .  S
O197       Mn299   2.173   1_554  S
O197       Mn215   2.144       .  S
O197       Mn219   2.174       .  S
O197       Mn221   2.144       .  S
O198        C208   1.256       .  A
O199        C222   1.259       .  A
O199       Mn215   2.039       .  S
O200        C227   1.275       .  A
O200       Mn219   2.198       .  S
O201       Mn232   1.945       .  S
O201       Mn601   1.946       .  S
O201        C217   1.224       .  S
C202        O205   1.274       .  A
C202        C259   1.500       .  S
C202        O228   1.222       .  S
O203       Mn223   2.142       .  S
Mn204       O423   2.199   1_455  S
Mn204       O209   2.198       .  S
Mn204       O616   2.196   1_455  S
Mn204       O292   2.173       .  S
Mn204       O495   2.173   1_455  S
O205       Mn409   2.199   1_565  S
O206        C208   1.256       .  A
O206       Mn213   2.024       .  S
C207        O233   1.274       .  A
C207        C246   1.500       .  S
C207        O220   1.222       .  S
C208        C252   1.379       .  S
O209        C234   1.275       .  A
O210       Mn489   2.173   1_564  S
O210       Mn213   2.144       .  S
O210       Mn409   2.173   1_565  S
O211       Mn310   1.949       .  S
O211       Mn332   1.946       .  S
O211        C234   1.224       .  S
C212        O238   1.258       .  A
C212        O214   1.257       .  A
C212        C251   1.389       .  S
Mn213       O321   2.024   1_554  S
Mn213       O228   1.941       .  S
Mn213       O315   1.941   1_554  S
Mn215       O326   2.038   1_554  S
Mn215       O306   1.949   1_554  S
Mn215       O225   1.948       .  S
O216        C218   1.257       .  A
O216       Mn316   2.031       .  S
C217        O235   1.274       .  A
C217        C255   1.502       .  S
C218        O231   1.259       .  A
C218        C270   1.392       .  S
Mn219       O395   2.199   1_455  S
Mn219       O615   2.196   1_455  S
Mn219       O400   2.173   1_455  S
O220       Mn308   1.941       .  S
O220       Mn698   1.944       .  S
Mn221       O311   2.031   1_554  S
Mn221       O581   1.946   1_455  S
Mn221       O714   1.945   1_454  S
C222        C249   1.392       .  S
Mn223       O325   2.031   1_554  S
Mn223       O238   2.032       .  S
Mn223       O695   1.944   1_454  S
Mn223       O608   1.944   1_455  S
C224        O230   1.258       .  A
C224        O240   1.257       .  A
C224        C273   1.389       .  S
O225       Mn237   1.946       .  S
O225        C227   1.224       .  S
O226       Mn308   2.024       .  S
C227        C257   1.503       .  S
O228       Mn603   1.944       .  S
O230       Mn318   2.031       .  S
O231       Mn310   2.038       .  S
Mn232       O334   1.945   1_554  S
O233       Mn394   2.199   1_565  S
C234        C245   1.503       .  S
O235       Mn599   2.196       .  S
O236        C241   1.274       .  A
O236       Mn584   2.196       .  S
Mn237       O306   1.946   1_554  S
O239       Mn696   1.945       .  S
O239       Mn327   1.945       .  S
O239        C241   1.224       .  S
C241        C243   1.502       .  S
C242        C243   1.247       .  T
C244        C245   1.248       .  T
C246        C247   1.247       .  T
C248        C249   1.181       .  T
C250        C251   1.180       .  T
C252        C253   1.174       .  T
C254        C255   1.247       .  T
C256        C257   1.248       .  T
C258        C259   1.247       .  T
C260        C261   1.423       .  A
C260        C265   1.426       .  A
C260        H266   1.080       .  S
C261        C262   1.423       .  A
C262        C263   1.434       .  A
C262        H267   1.083       .  S
C263        C264   1.423       .  A
C263        H268   1.083       .  S
C264        C265   1.423       .  A
C265        H269   1.080       .  S
C270        C271   1.181       .  T
C272        C273   1.180       .  T
C274        C275   1.174       .  T
C276        C277   1.402       .  A
C276        C281   1.367       .  A
C276        H282   1.086       .  S
C277        C278   1.402       .  A
C278        C279   1.356       .  A
C278        H283   1.083       .  S
C279        C280   1.402       .  A
C279        H284   1.083       .  S
C280        C281   1.402       .  A
C281        H285   1.086       .  S
C286        C366   1.432       .  S
C286        C367   1.434       .  S
C286        C370   1.431       .  S
C286        C372   1.451       .  S
C287        C349   1.541       .  S
C287        C351   1.541       .  S
C287        C353   1.543       .  S
C287        C356   1.602       .  S
C288        C343   1.432       .  S
C288        C345   1.433       .  S
C288        C348   1.431       .  S
C288        C375   1.451       .  S
C289        C337   1.541       .  S
C289        C339   1.541       .  S
C289        C342   1.543       .  S
C289        C359   1.602       .  S
O290        C317   1.257       .  A
O290       Mn316   2.030       .  S
C291        O324   1.256       .  A
C291        O321   1.256       .  A
C291        C369   1.379       .  S
O292       Mn310   2.144       .  S
O292       Mn314   2.174       .  S
O292       Mn316   2.144       .  S
O293        C303   1.256       .  A
O294        C317   1.259       .  A
O294       Mn310   2.039       .  S
O295        C322   1.275       .  A
O295       Mn314   2.198       .  S
O296       Mn327   1.945       .  S
O296       Mn696   1.946       .  S
O296        C312   1.224       .  S
C297        O300   1.274       .  A
C297        C354   1.500       .  S
C297        O323   1.222       .  S
O298       Mn318   2.142       .  S
Mn299       O518   2.199   1_455  S
Mn299       O304   2.198       .  S
Mn299       O711   2.196   1_455  S
Mn299       O400   2.173   1_456  S
O300       Mn504   2.199   1_565  S
O301        C303   1.256       .  A
O301       Mn308   2.024       .  S
C302        O328   1.274       .  A
C302        C341   1.500       .  S
C302        O315   1.222       .  S
C303        C347   1.379       .  S
O304        C329   1.275       .  A
O305       Mn394   2.173   1_565  S
O305       Mn308   2.144       .  S
O305       Mn504   2.173   1_565  S
O306        C329   1.224       .  S
C307        O333   1.258       .  A
C307        O309   1.257       .  A
C307        C346   1.389       .  S
Mn308       O323   1.941       .  S
Mn310       O320   1.948       .  S
O311        C313   1.257       .  A
C312        O330   1.274       .  A
C312        C350   1.502       .  S
C313        O326   1.259       .  A
C313        C365   1.392       .  S
Mn314       O490   2.199   1_455  S
Mn314       O710   2.196   1_455  S
Mn314       O495   2.173   1_455  S
O315       Mn603   1.944   1_556  S
Mn316       O676   1.946   1_455  S
Mn316       O619   1.945   1_455  S
C317        C344   1.392       .  S
Mn318       O333   2.032       .  S
Mn318       O600   1.944   1_455  S
Mn318       O703   1.944   1_455  S
C319        O325   1.258       .  A
C319        O335   1.257       .  A
C319        C368   1.389       .  S
O320       Mn332   1.946       .  S
O320        C322   1.224       .  S
C322        C352   1.503       .  S
O323       Mn698   1.944       .  S
O328       Mn489   2.199   1_565  S
C329        C340   1.503       .  S
O330       Mn694   2.196       .  S
O331        C336   1.274       .  A
O331       Mn679   2.196       .  S
O334       Mn601   1.945   1_556  S
O334        C336   1.224       .  S
C336        C338   1.502       .  S
C337        C338   1.247       .  T
C339        C340   1.248       .  T
C341        C342   1.247       .  T
C343        C344   1.181       .  T
C345        C346   1.180       .  T
C347        C348   1.174       .  T
C349        C350   1.247       .  T
C351        C352   1.248       .  T
C353        C354   1.247       .  T
C355        C356   1.423       .  A
C355        C360   1.426       .  A
C355        H361   1.080       .  S
C356        C357   1.423       .  A
C357        C358   1.434       .  A
C357        H362   1.083       .  S
C358        C359   1.423       .  A
C358        H363   1.083       .  S
C359        C360   1.423       .  A
C360        H364   1.080       .  S
C365        C366   1.181       .  T
C367        C368   1.180       .  T
C369        C370   1.174       .  T
C371        C372   1.402       .  A
C371        C376   1.367       .  A
C371        H377   1.086       .  S
C372        C373   1.402       .  A
C373        C374   1.356       .  A
C373        H378   1.083       .  S
C374        C375   1.402       .  A
C374        H379   1.083       .  S
C375        C376   1.402       .  A
C376        H380   1.086       .  S
C381        C461   1.432       .  S
C381        C462   1.434       .  S
C381        C465   1.431       .  S
C381        C467   1.451       .  S
C382        C444   1.541       .  S
C382        C446   1.541       .  S
C382        C448   1.543       .  S
C382        C451   1.602       .  S
C383        C438   1.432       .  S
C383        C440   1.433       .  S
C383        C443   1.431       .  S
C383        C470   1.451       .  S
C384        C432   1.541       .  S
C384        C434   1.541       .  S
C384        C437   1.543       .  S
C384        C454   1.602       .  S
O385        C412   1.257       .  A
O385       Mn411   2.030       .  S
C386        O419   1.256       .  A
C386        O416   1.256       .  A
C386        C464   1.379       .  S
O387       Mn489   2.173   1_554  S
O387       Mn405   2.144       .  S
O387       Mn409   2.174       .  S
O387       Mn411   2.144       .  S
O388        C398   1.256       .  A
O388       Mn612   2.026       .  S
O389        C412   1.259       .  A
O389       Mn405   2.039       .  S
O390        C417   1.275       .  A
O390       Mn409   2.198       .  S
O391       Mn422   1.945       .  S
O391        C407   1.224       .  S
C392        O395   1.274       .  A
C392        C449   1.500       .  S
C392        O418   1.222       .  S
O393       Mn413   2.142       .  S
O393       Mn679   2.171   1_554  S
O393       Mn617   2.145       .  S
O393       Mn599   2.171       .  S
Mn394       O399   2.198       .  S
Mn394       O482   2.173       .  S
Mn394       O678   2.171   1_545  S
O396        C398   1.256       .  A
O396       Mn403   2.024       .  S
C397        O423   1.274       .  A
C397        C436   1.500       .  S
C397        O410   1.222       .  S
C398        C442   1.379       .  S
O399        C424   1.275       .  A
O400       Mn403   2.144       .  S
O400       Mn612   2.143       .  S
O401       Mn500   1.949       .  S
O401       Mn522   1.946       .  S
O401        C424   1.224       .  S
C402        O428   1.258       .  A
C402        O404   1.257       .  A
C402        C441   1.389       .  S
Mn403       O511   2.024   1_554  S
Mn403       O418   1.941       .  S
Mn403       O505   1.941   1_554  S
O404       Mn617   2.030       .  S
Mn405       O516   2.038   1_554  S
Mn405       O496   1.949   1_554  S
Mn405       O415   1.948       .  S
O406        C408   1.257       .  A
O406       Mn506   2.031       .  S
C407        O425   1.274       .  A
C407        C445   1.502       .  S
C408        O421   1.259       .  A
C408        C460   1.392       .  S
Mn409       O583   2.171   1_545  S
O410       Mn498   1.941       .  S
Mn411       O501   2.031   1_554  S
C412        C439   1.392       .  S
Mn413       O515   2.031   1_554  S
Mn413       O428   2.032       .  S
C414        O420   1.258       .  A
C414        O430   1.257       .  A
C414        C463   1.389       .  S
O415       Mn427   1.946       .  S
O415        C417   1.224       .  S
O416       Mn498   2.024       .  S
C417        C447   1.503       .  S
O419       Mn707   2.025       .  S
O420       Mn508   2.031       .  S
O421       Mn500   2.038       .  S
Mn422       O578   2.026   1_545  S
Mn422       O704   2.025   1_544  S
Mn422       O590   2.143   1_545  S
Mn422       O524   1.945   1_554  S
C424        C435   1.503       .  S
O426        C431   1.274       .  A
Mn427       O594   2.030   1_545  S
Mn427       O715   2.031   1_544  S
Mn427       O583   2.145   1_545  S
Mn427       O496   1.946   1_554  S
O429       Mn517   1.945       .  S
O429        C431   1.224       .  S
O430       Mn712   2.031       .  S
C431        C433   1.502       .  S
C432        C433   1.247       .  T
C434        C435   1.248       .  T
C436        C437   1.247       .  T
C438        C439   1.181       .  T
C440        C441   1.180       .  T
C442        C443   1.174       .  T
C444        C445   1.247       .  T
C446        C447   1.248       .  T
C448        C449   1.247       .  T
C450        C451   1.423       .  A
C450        C455   1.426       .  A
C450        H456   1.080       .  S
C451        C452   1.423       .  A
C452        C453   1.434       .  A
C452        H457   1.083       .  S
C453        C454   1.423       .  A
C453        H458   1.083       .  S
C454        C455   1.423       .  A
C455        H459   1.080       .  S
C460        C461   1.181       .  T
C462        C463   1.180       .  T
C464        C465   1.174       .  T
C466        C467   1.402       .  A
C466        C471   1.367       .  A
C466        H472   1.086       .  S
C467        C468   1.402       .  A
C468        C469   1.356       .  A
C468        H473   1.083       .  S
C469        C470   1.402       .  A
C469        H474   1.083       .  S
C470        C471   1.402       .  A
C471        H475   1.086       .  S
C476        C556   1.432       .  S
C476        C557   1.434       .  S
C476        C560   1.431       .  S
C476        C562   1.451       .  S
C477        C539   1.541       .  S
C477        C541   1.541       .  S
C477        C543   1.543       .  S
C477        C546   1.602       .  S
C478        C533   1.432       .  S
C478        C535   1.433       .  S
C478        C538   1.431       .  S
C478        C565   1.451       .  S
C479        C527   1.541       .  S
C479        C529   1.541       .  S
C479        C532   1.543       .  S
C479        C549   1.602       .  S
O480        C507   1.257       .  A
O480       Mn506   2.030       .  S
C481        O514   1.256       .  A
C481        O511   1.256       .  A
C481        C559   1.379       .  S
O482       Mn500   2.144       .  S
O482       Mn504   2.174       .  S
O482       Mn506   2.144       .  S
O483        C493   1.256       .  A
O483       Mn707   2.026       .  S
O484        C507   1.259       .  A
O484       Mn500   2.039       .  S
O485        C512   1.275       .  A
O485       Mn504   2.198       .  S
O486       Mn517   1.945       .  S
O486        C502   1.224       .  S
C487        O490   1.274       .  A
C487        C544   1.500       .  S
C487        O513   1.222       .  S
O488       Mn508   2.142       .  S
O488       Mn584   2.171       .  S
O488       Mn712   2.145       .  S
O488       Mn694   2.171       .  S
Mn489       O494   2.198       .  S
Mn489       O583   2.171   1_546  S
O491        C493   1.256       .  A
O491       Mn498   2.024       .  S
C492        O518   1.274       .  A
C492        C531   1.500       .  S
C492        O505   1.222       .  S
C493        C537   1.379       .  S
O494        C519   1.275       .  A
O495       Mn498   2.144       .  S
O495       Mn707   2.143       .  S
O496        C519   1.224       .  S
C497        O523   1.258       .  A
C497        O499   1.257       .  A
C497        C536   1.389       .  S
Mn498       O513   1.941       .  S
O499       Mn712   2.030       .  S
Mn500       O510   1.948       .  S
O501        C503   1.257       .  A
C502        O520   1.274       .  A
C502        C540   1.502       .  S
C503        O516   1.259       .  A
C503        C555   1.392       .  S
Mn504       O678   2.171   1_545  S
C507        C534   1.392       .  S
Mn508       O523   2.032       .  S
C509        O515   1.258       .  A
C509        O525   1.257       .  A
C509        C558   1.389       .  S
O510       Mn522   1.946       .  S
O510        C512   1.224       .  S
C512        C542   1.503       .  S
O514       Mn612   2.025   1_556  S
Mn517       O673   2.026   1_545  S
Mn517       O609   2.025   1_545  S
Mn517       O685   2.143   1_545  S
C519        C530   1.503       .  S
O521        C526   1.274       .  A
Mn522       O689   2.030   1_545  S
Mn522       O620   2.031   1_545  S
Mn522       O678   2.145   1_545  S
O524        C526   1.224       .  S
O525       Mn617   2.031   1_556  S
C526        C528   1.502       .  S
C527        C528   1.247       .  T
C529        C530   1.248       .  T
C531        C532   1.247       .  T
C533        C534   1.181       .  T
C535        C536   1.180       .  T
C537        C538   1.174       .  T
C539        C540   1.247       .  T
C541        C542   1.248       .  T
C543        C544   1.247       .  T
C545        C546   1.423       .  A
C545        C550   1.426       .  A
C545        H551   1.080       .  S
C546        C547   1.423       .  A
C547        C548   1.434       .  A
C547        H552   1.083       .  S
C548        C549   1.423       .  A
C548        H553   1.083       .  S
C549        C550   1.423       .  A
C550        H554   1.080       .  S
C555        C556   1.181       .  T
C557        C558   1.180       .  T
C559        C560   1.174       .  T
C561        C562   1.402       .  A
C561        C566   1.367       .  A
C561        H567   1.086       .  S
C562        C563   1.402       .  A
C563        C564   1.356       .  A
C563        H568   1.083       .  S
C564        C565   1.402       .  A
C564        H569   1.083       .  S
C565        C566   1.402       .  A
C566        H570   1.086       .  S
C571        C651   1.432       .  S
C571        C652   1.434       .  S
C571        C655   1.431       .  S
C571        C657   1.451       .  S
C572        C634   1.541       .  S
C572        C636   1.541       .  S
C572        C638   1.543       .  S
C572        C641   1.602       .  S
C573        C628   1.432       .  S
C573        C630   1.433       .  S
C573        C633   1.431       .  S
C573        C660   1.451       .  S
C574        C622   1.541       .  S
C574        C624   1.541       .  S
C574        C627   1.543       .  S
C574        C644   1.602       .  S
O575        C602   1.257       .  A
O575       Mn601   2.030       .  S
C576        O609   1.256       .  A
C576        O606   1.256       .  A
C576        C654   1.379       .  S
O577       Mn679   2.173   1_554  S
O577       Mn595   2.144       .  S
O577       Mn599   2.174       .  S
O577       Mn601   2.144       .  S
O578        C588   1.256       .  A
O579        C602   1.259       .  A
O579       Mn595   2.039       .  S
O580        C607   1.275       .  A
O580       Mn599   2.198       .  S
O581       Mn612   1.945       .  S
O581        C597   1.224       .  S
C582        O585   1.274       .  A
C582        C639   1.500       .  S
C582        O608   1.222       .  S
O583       Mn603   2.142       .  S
Mn584       O589   2.198       .  S
Mn584       O672   2.173       .  S
O586        C588   1.256       .  A
O586       Mn593   2.024       .  S
C587        O613   1.274       .  A
C587        C626   1.500       .  S
C587        O600   1.222       .  S
C588        C632   1.379       .  S
O589        C614   1.275       .  A
O590       Mn593   2.144       .  S
O591       Mn690   1.949       .  S
O591       Mn712   1.946       .  S
O591        C614   1.224       .  S
C592        O618   1.258       .  A
C592        O594   1.257       .  A
C592        C631   1.389       .  S
Mn593       O701   2.024   1_554  S
Mn593       O608   1.941       .  S
Mn593       O695   1.941   1_554  S
Mn595       O706   2.038   1_554  S
Mn595       O686   1.949   1_554  S
Mn595       O605   1.948       .  S
O596        C598   1.257       .  A
O596       Mn696   2.031       .  S
C597        O615   1.274       .  A
C597        C635   1.502       .  S
C598        O611   1.259       .  A
C598        C650   1.392       .  S
O600       Mn688   1.941       .  S
Mn601       O691   2.031   1_554  S
C602        C629   1.392       .  S
Mn603       O705   2.031   1_554  S
Mn603       O618   2.032       .  S
C604        O610   1.258       .  A
C604        O620   1.257       .  A
C604        C653   1.389       .  S
O605       Mn617   1.946       .  S
O605        C607   1.224       .  S
O606       Mn688   2.024       .  S
C607        C637   1.503       .  S
O610       Mn698   2.031       .  S
O611       Mn690   2.038       .  S
Mn612       O714   1.945   1_554  S
C614        C625   1.503       .  S
O616        C621   1.274       .  A
Mn617       O686   1.946   1_554  S
O619       Mn707   1.945       .  S
O619        C621   1.224       .  S
C621        C623   1.502       .  S
C622        C623   1.247       .  T
C624        C625   1.248       .  T
C626        C627   1.247       .  T
C628        C629   1.181       .  T
C630        C631   1.180       .  T
C632        C633   1.174       .  T
C634        C635   1.247       .  T
C636        C637   1.248       .  T
C638        C639   1.247       .  T
C640        C641   1.423       .  A
C640        C645   1.426       .  A
C640        H646   1.080       .  S
C641        C642   1.423       .  A
C642        C643   1.434       .  A
C642        H647   1.083       .  S
C643        C644   1.423       .  A
C643        H648   1.083       .  S
C644        C645   1.423       .  A
C645        H649   1.080       .  S
C650        C651   1.181       .  T
C652        C653   1.180       .  T
C654        C655   1.174       .  T
C656        C657   1.402       .  A
C656        C661   1.367       .  A
C656        H662   1.086       .  S
C657        C658   1.402       .  A
C658        C659   1.356       .  A
C658        H663   1.083       .  S
C659        C660   1.402       .  A
C659        H664   1.083       .  S
C660        C661   1.402       .  A
C661        H665   1.086       .  S
C666        C746   1.432       .  S
C666        C747   1.434       .  S
C666        C750   1.431       .  S
C666        C752   1.451       .  S
C667        C729   1.541       .  S
C667        C731   1.541       .  S
C667        C733   1.543       .  S
C667        C736   1.602       .  S
C668        C723   1.432       .  S
C668        C725   1.433       .  S
C668        C728   1.431       .  S
C668        C755   1.451       .  S
C669        C717   1.541       .  S
C669        C719   1.541       .  S
C669        C722   1.543       .  S
C669        C739   1.602       .  S
O670        C697   1.257       .  A
O670       Mn696   2.030       .  S
C671        O704   1.256       .  A
C671        O701   1.256       .  A
C671        C749   1.379       .  S
O672       Mn690   2.144       .  S
O672       Mn694   2.174       .  S
O672       Mn696   2.144       .  S
O673        C683   1.256       .  A
O674        C697   1.259       .  A
O674       Mn690   2.039       .  S
O675        C702   1.275       .  A
O675       Mn694   2.198       .  S
O676       Mn707   1.945       .  S
O676        C692   1.224       .  S
C677        O680   1.274       .  A
C677        C734   1.500       .  S
C677        O703   1.222       .  S
O678       Mn698   2.142       .  S
Mn679       O684   2.198       .  S
O681        C683   1.256       .  A
O681       Mn688   2.024       .  S
C682        O708   1.274       .  A
C682        C721   1.500       .  S
C682        O695   1.222       .  S
C683        C727   1.379       .  S
O684        C709   1.275       .  A
O685       Mn688   2.144       .  S
O686        C709   1.224       .  S
C687        O713   1.258       .  A
C687        O689   1.257       .  A
C687        C726   1.389       .  S
Mn688       O703   1.941       .  S
Mn690       O700   1.948       .  S
O691        C693   1.257       .  A
C692        O710   1.274       .  A
C692        C730   1.502       .  S
C693        O706   1.259       .  A
C693        C745   1.392       .  S
C697        C724   1.392       .  S
Mn698       O713   2.032       .  S
C699        O705   1.258       .  A
C699        O715   1.257       .  A
C699        C748   1.389       .  S
O700       Mn712   1.946       .  S
O700        C702   1.224       .  S
C702        C732   1.503       .  S
C709        C720   1.503       .  S
O711        C716   1.274       .  A
O714        C716   1.224       .  S
C716        C718   1.502       .  S
C717        C718   1.247       .  T
C719        C720   1.248       .  T
C721        C722   1.247       .  T
C723        C724   1.181       .  T
C725        C726   1.180       .  T
C727        C728   1.174       .  T
C729        C730   1.247       .  T
C731        C732   1.248       .  T
C733        C734   1.247       .  T
C735        C736   1.423       .  A
C735        C740   1.426       .  A
C735        H741   1.080       .  S
C736        C737   1.423       .  A
C737        C738   1.434       .  A
C737        H742   1.083       .  S
C738        C739   1.423       .  A
C738        H743   1.083       .  S
C739        C740   1.423       .  A
C740        H744   1.080       .  S
C745        C746   1.181       .  T
C747        C748   1.180       .  T
C749        C750   1.174       .  T
C751        C752   1.402       .  A
C751        C756   1.367       .  A
C751        H757   1.086       .  S
C752        C753   1.402       .  A
C753        C754   1.356       .  A
C753        H758   1.083       .  S
C754        C755   1.402       .  A
C754        H759   1.083       .  S
C755        C756   1.402       .  A
C756        H760   1.086       .  S
