geometry optimzed in LAMMPS
_audit_creation_date              2020-11-30 
_audit_creation_method            'lammps2cif' 
_symmetry_space_group_name_H-M    'P1' 
_symmetry_Int_Tables_number       1 
_symmetry_cell_setting            triclinic 
loop_ 
_symmetry_equiv_pos_as_xyz 
  x,y,z 
_cell_length_a                    24.29212913 
_cell_length_b                    24.32240423476426 
_cell_length_c                    24.29199892250789 
_cell_angle_alpha                 89.97395313807877 
_cell_angle_beta                  90.03432555789217 
_cell_angle_gamma                 89.9740492962524 
loop_ 
_atom_site_label 
_atom_site_type_symbol 
_atom_site_fract_x 
_atom_site_fract_y 
_atom_site_fract_z 
_atom_site_charge 
O1          O  0.90458606  0.99446522  0.90970567    -0.77600
C2          C  0.04389205  0.89338479  0.89647842     0.83400
O3          O  0.91814345  0.91585720  0.09253603    -0.78700
O4          O  0.11648579  0.95167977  0.05405894    -0.80200
O5          O  0.05236333  0.11672976  0.96393870    -0.80000
O6          O  0.91969851  0.08377603  0.91905007    -0.78600
Zn7        Zn  0.95452451  0.95388368  0.95720555     1.55700
O8          O  0.11771518  0.05161184  0.96311582    -0.80000
Cd9        Cd  0.97913013  0.07583042  0.98283968     1.59700
Cd10       Cd  0.97926048  0.97768568  0.08155544     1.59600
O11         O  0.95173525  0.11443937  0.05415284    -0.80000
O12         O  0.99851282  0.99728737  0.00199127    -1.90500
Cd13       Cd  0.07715807  0.97817554  0.98250962     1.59900
O14         O  0.95551410  0.05014575  0.12037216    -0.80000
O15         O  0.08439393  0.91834402  0.91885561    -0.78600
C16         C  0.89589551  0.89428385  0.05034525     0.83900
C17         C  0.89428794  0.04363565  0.89669910     0.83600
O18         O  0.99479387  0.90414219  0.90950338    -0.77600
C19         C  0.10279576  0.10200842  0.96015404     0.84400
O20         O  0.90993485  0.90901399  0.00261071    -0.77700
C21         C  0.94853847  0.09975051  0.10452378     0.84500
C22         C  0.10195355  0.94878730  0.10451652     0.84800
O23         O  0.05223643  0.95522641  0.12035844    -0.80100
O24         O  0.09268865  0.24603534  0.15660318    -0.77600
C25         C  0.10310803  0.14708251  0.29713491     0.83400
O26         O  0.91322559  0.16634114  0.16967015    -0.78700
O27         O  0.94597769  0.20960823  0.36786279    -0.78600
O28         O  0.03788716  0.36937939  0.30109178    -0.80000
O29         O  0.08171911  0.33558984  0.16902752    -0.78600
Zn30       Zn  0.04313895  0.20569148  0.20407900     1.55700
O31         O  0.04016085  0.30495175  0.36710722    -0.80000
Cd32       Cd  0.01826385  0.32802213  0.22850786     1.59700
Cd33       Cd  0.92085765  0.22985295  0.22928062     1.59600
O34         O  0.94669865  0.36652462  0.20182109    -0.80000
O35         O  0.99933901  0.24963591  0.24854644    -1.90500
Cd36       Cd  0.01882142  0.23149342  0.32836863     1.59900
O37         O  0.88146576  0.30124685  0.20336346    -0.80000
O38         O  0.08119895  0.16972393  0.33910340    -0.78600
C39         C  0.95379696  0.14282027  0.14601090     0.83900
C40         C  0.10533887  0.29506749  0.14548917     0.83600
O41         O  0.08851589  0.16083924  0.24923611    -0.77600
C42         C  0.04263936  0.35513207  0.35155176     0.84400
O43         O  0.00286328  0.15574086  0.15691389    -0.77700
C44         C  0.89661840  0.35119380  0.19765413     0.84500
C45         C  0.89565829  0.20595509  0.35281215     0.84800
O46         O  0.88075965  0.20981149  0.30244877    -0.80100
O47         O  0.74915564  0.16083960  0.58859591    -0.77600
C48         C  0.64540826  0.29506850  0.60541949     0.83400
O49         O  0.66959006  0.16634146  0.41330553    -0.78700
O50         O  0.70174004  0.36652449  0.44677766    -0.80200
O51         O  0.86702639  0.30495254  0.54024119    -0.80000
O52         O  0.83902261  0.16972471  0.58127925    -0.78600
Zn53       Zn  0.70399890  0.20569194  0.54321898     1.55700
O54         O  0.80101151  0.36938042  0.53796655    -0.80000
Cd55       Cd  0.82828812  0.23149433  0.51890164     1.59700
Cd56       Cd  0.72920093  0.22985270  0.42093743     1.59600
O57         O  0.86778284  0.20960902  0.44605819    -0.80000
O58         O  0.74846628  0.24963655  0.49941914    -1.90500
Cd59       Cd  0.72842768  0.32802270  0.51834351     1.59900
O60         O  0.80236908  0.20981095  0.38083999    -0.80000
O61         O  0.66894756  0.33559032  0.58179867    -0.78600
C62         C  0.64593013  0.14282083  0.45387571     0.83900
C63         C  0.79705484  0.14708284  0.60318836     0.83600
O64         O  0.65652353  0.24603556  0.59276858    -0.77600
C65         C  0.85147056  0.35513344  0.54271942     0.84400
O66         O  0.65683349  0.15574160  0.50294369    -0.77700
C67         C  0.85273179  0.20595506  0.39573796     0.84500
C68         C  0.69757400  0.35119373  0.39669880     0.84800
O69         O  0.70328477  0.30124636  0.38154500    -0.80100
O70         O  0.74930935  0.09023147  0.66081087    -0.77600
C71         C  0.64597203  0.95483078  0.64511379     0.83400
O72         O  0.66890459  0.08329410  0.83671282    -0.78700
O73         O  0.70397199  0.88413144  0.80436816    -0.80200
O74         O  0.86848586  0.94818960  0.71185270    -0.80000
O75         O  0.83922490  0.08239312  0.66862588    -0.78600
Zn76       Zn  0.70447700  0.04503448  0.70650495     1.55700
O77         O  0.80291057  0.88321878  0.71248413    -0.80000
Cd78       Cd  0.82874965  0.02162680  0.73177156     1.59700
Cd79       Cd  0.72954472  0.02123413  0.82941081     1.59600
O80         O  0.86758260  0.04649636  0.80406271    -0.80000
O81         O  0.74914119  0.00186341  0.75094354    -1.90500
Cd82       Cd  0.72972793  0.92316919  0.73249363     1.59900
O83         O  0.80201204  0.04390208  0.86907436    -0.80000
O84         O  0.66983618  0.91470085  0.66920247    -0.78600
C85         C  0.64561776  0.10690412  0.79599944     0.83900
C86         C  0.79713294  0.10442628  0.64635536     0.83600
O87         O  0.65691947  0.00405448  0.65721370    -0.77600
C88         C  0.85330377  0.89792463  0.70857151     0.84400
O89         O  0.65715533  0.09453404  0.74694066    -0.77700
C90         C  0.85210978  0.04968542  0.85420135     0.84500
C91         C  0.69979347  0.89933534  0.85451104     0.84800
O92         O  0.70533729  0.94935371  0.86957346    -0.80100
O93         O  0.15713301  0.00405418  0.15700005    -0.77600
C94         C  0.14627542  0.10442591  0.29721293     0.83400
O95         O  0.33663120  0.08329426  0.16898394    -0.78700
O96         O  0.30398246  0.04649606  0.36766259    -0.80200
O97         O  0.21240403  0.88321890  0.30299029    -0.80000
O98         O  0.16912271  0.91470033  0.16991597    -0.78600
Zn99       Zn  0.20642424  0.04503406  0.20455676     1.55700
O100        O  0.21177205  0.94818948  0.36856587    -0.80000
Cd101      Cd  0.23241386  0.92316895  0.22980755     1.59700
Cd102      Cd  0.32932983  0.02123401  0.22962411     1.59600
O103        O  0.30428849  0.88413138  0.20405181    -0.80000
O104        O  0.25086280  0.00186331  0.24922103    -1.90500
Cd105      Cd  0.23169138  0.02162692  0.32882982     1.59900
O106        O  0.36949302  0.94935398  0.20541646    -0.80000
O107        O  0.16854620  0.08239340  0.33930539    -0.78600
C108        C  0.29591947  0.10690391  0.14569757     0.83900
C109        C  0.14503321  0.95482872  0.14605208     0.83600
O110        O  0.16073033  0.09023105  0.24938937    -0.77600
C111        C  0.20849096  0.89792508  0.35338322     0.84400
O112        O  0.24685949  0.09453359  0.15723486    -0.77700
C113        C  0.35443015  0.89933529  0.19987281     0.84500
C114        C  0.35412195  0.04968595  0.35218940     0.84800
O115        O  0.36899343  0.04390263  0.30209111    -0.80100
O116        O  0.09086016  0.50598897  0.59093972    -0.77600
C117        C  0.10199253  0.60560799  0.45027273     0.83400
O118        O  0.90805852  0.58278528  0.58081916    -0.78700
O119        O  0.94580937  0.54709376  0.38048189    -0.80200
O120        O  0.03953405  0.38393705  0.44458609    -0.80000
O121        O  0.07932117  0.41646744  0.57940238    -0.78600
Zn122      Zn  0.04149834  0.54510510  0.54157821     1.55700
O123        O  0.03774567  0.44860988  0.37870362    -0.80000
Cd124      Cd  0.01720543  0.42366592  0.51728621     1.59700
Cd125      Cd  0.91852819  0.52192479  0.51791443     1.59600
O126        O  0.94450536  0.38393761  0.53961452    -0.80000
O127        O  0.99762632  0.50198139  0.49770655    -1.90500
Cd128      Cd  0.01783438  0.52192419  0.41860780     1.59900
O129        O  0.87862325  0.44861027  0.53782547    -0.80000
O130        O  0.08073854  0.58278509  0.40813762    -0.78600
C131        C  0.95019401  0.60560747  0.60207243     0.83900
C132        C  0.10298710  0.45703804  0.60306721     0.83600
O133        O  0.08696576  0.59174937  0.49800876    -0.77600
C134        C  0.04242913  0.39849590  0.39406046     0.84400
O135        O  0.99792911  0.59174948  0.58704633    -0.77700
C136        C  0.89397925  0.39849725  0.54250921     0.84500
C137        C  0.89580368  0.55182542  0.39588364     0.84800
O138        O  0.88040246  0.54709584  0.44588942    -0.80100
O139        O  0.41184499  0.33943235  0.75066547    -0.77600
C140        C  0.39616211  0.20319232  0.85322677     0.83400
O141        O  0.59025782  0.33366806  0.83238959    -0.78700
O142        O  0.55356994  0.13384914  0.79726302    -0.80200
O143        O  0.46312023  0.19553910  0.63079511    -0.80000
O144        O  0.41769931  0.32968673  0.66083422    -0.78600
Zn145      Zn  0.45882412  0.29302929  0.79315914     1.55700
O146        O  0.46325108  0.13044110  0.69635207    -0.80000
Cd147      Cd  0.48164525  0.26950338  0.67079512     1.59700
Cd148      Cd  0.58038190  0.27146266  0.77079046     1.59600
O149        O  0.55345429  0.29625413  0.63292446    -0.80000
O150        O  0.50200530  0.24986256  0.74983079    -1.90500
Cd151      Cd  0.48159648  0.17104190  0.77007092     1.59900
O152        O  0.61922388  0.29461486  0.69804938    -0.80000
O153        O  0.41748046  0.16115079  0.83025041    -0.78600
C154        C  0.54807272  0.35542096  0.85457225     0.83900
C155        C  0.39644917  0.35275614  0.70288245     0.83600
O156        O  0.41160175  0.25086621  0.83977458    -0.77600
C157        C  0.45993306  0.14516095  0.64583691     0.84400
O158        O  0.50039826  0.34049907  0.84031507    -0.77700
C159        C  0.60362816  0.30041785  0.64812212     0.84500
C160        C  0.60366671  0.14930737  0.80115661     0.84800
O161        O  0.61908797  0.19913297  0.79479386    -0.80100
O162        O  0.84367562  0.75396306  0.90838761    -0.77600
C163        C  0.70514152  0.85679034  0.89682124     0.83400
O164        O  0.83126052  0.82920179  0.09203601    -0.78700
O165        O  0.63205196  0.79274694  0.05375187    -0.80200
O166        O  0.69713310  0.63312077  0.95845262    -0.80000
O167        O  0.83127367  0.66440476  0.91932950    -0.78600
Zn168      Zn  0.79406678  0.79408994  0.95615369     1.55700
O169        O  0.63209543  0.69863525  0.95854990    -0.80000
Cd170      Cd  0.76972962  0.67185706  0.98123971     1.59700
Cd171      Cd  0.76939955  0.76805067  0.08050310     1.59600
O172        O  0.79198898  0.63073504  0.05321242    -0.80000
O173        O  0.75038726  0.75021577  0.00067617    -1.90500
Cd174      Cd  0.67207096  0.77052285  0.98140677     1.59900
O175        O  0.79085565  0.69498895  0.11929203    -0.80000
O176        O  0.66458457  0.83268109  0.91996386    -0.78600
C177        C  0.85320149  0.85165709  0.05009887     0.83900
C178        C  0.85537074  0.70494174  0.89618774     0.83600
O179        O  0.75421437  0.84464586  0.90873034    -0.77600
C180        C  0.64694853  0.64839493  0.95446933     0.84400
O181        O  0.83880412  0.83798368  0.00216341    -0.77700
C182        C  0.79537274  0.64501544  0.10373294     0.84500
C183        C  0.64686818  0.79563249  0.10415612     0.84800
O184        O  0.69692277  0.79042254  0.11941944    -0.80100
O185        O  0.33969490  0.25086603  0.91168111    -0.77600
C186        C  0.20280337  0.35275597  0.89652910     0.83400
O187        O  0.33231029  0.33366811  0.09033785    -0.78700
O188        O  0.13284486  0.29625365  0.05353438    -0.80200
O189        O  0.19627192  0.13044037  0.96333121    -0.80000
O190        O  0.33017044  0.16115080  0.91755979    -0.78600
Zn191      Zn  0.29307958  0.29302924  0.95890374     1.55700
O192        O  0.13071565  0.19553835  0.96320003    -0.80000
Cd193      Cd  0.26999070  0.17104205  0.98167584     1.59700
Cd194      Cd  0.27071047  0.27146310  0.08046208     1.59600
O195        O  0.29718283  0.13384944  0.05364918    -0.80000
O196        O  0.24975096  0.24986267  0.00208514    -1.90500
Cd197      Cd  0.17071573  0.26950297  0.98172494     1.59900
O198        O  0.29471286  0.19913288  0.11916803    -0.80000
O199        O  0.16075506  0.32968634  0.91777900    -0.78600
C200        C  0.35449295  0.35542065  0.04815232     0.83900
C201        C  0.35314656  0.20319207  0.89624205     0.83600
O202        O  0.25058592  0.33943258  0.91192483    -0.77600
C203        C  0.14575736  0.14516155  0.96001361     0.84400
O204        O  0.34023576  0.34049895  0.00047777    -0.77700
C205        C  0.30107565  0.14930801  0.10374750     0.84500
C206        C  0.14804390  0.30041765  0.10370716     0.84800
O207        O  0.19796913  0.29461563  0.11930406    -0.80100
O208        O  0.75296677  0.40497792  0.34312398    -0.77600
C209        C  0.85443200  0.39347335  0.20368170     0.83400
O210        O  0.82972004  0.58527510  0.32980050    -0.78700
O211        O  0.79195684  0.55159107  0.13126361    -0.80200
O212        O  0.63186361  0.45774367  0.19717878    -0.80000
O213        O  0.66337362  0.41753815  0.33071488    -0.78600
Zn214      Zn  0.79515635  0.45294018  0.29523608     1.55700
O215        O  0.69709867  0.45774338  0.13194373    -0.80000
Cd216      Cd  0.67160178  0.47941516  0.26958239     1.59700
Cd217      Cd  0.76855948  0.57657926  0.26863978     1.59600
O218        O  0.63118381  0.55159084  0.29203675    -0.80000
O219        O  0.75059118  0.49757001  0.25067058    -1.90500
Cd220      Cd  0.76950268  0.47941479  0.17168127     1.59900
O221        O  0.69646288  0.61652934  0.29094411    -0.80000
O222        O  0.83063500  0.41753780  0.16345336    -0.78600
C223        C  0.85376100  0.54529401  0.35384108     0.83900
C224        C  0.70360292  0.39347375  0.35451028     0.83600
O225        O  0.84304469  0.40497885  0.25304730    -0.77600
C226        C  0.64683335  0.45417732  0.14691263     0.84400
O227        O  0.84263283  0.49583673  0.34271304    -0.77700
C228        C  0.64622199  0.60180872  0.29545468     0.84500
C229        C  0.79537518  0.60180828  0.14630215     0.84800
O230        O  0.79086457  0.61652916  0.19654335    -0.80100
O231        O  0.40942199  0.90414315  0.49487360    -0.77600
C232        C  0.39661869  0.04363570  0.39436691     0.83400
O233        O  0.59245486  0.91585734  0.41822371    -0.78700
O234        O  0.55407220  0.11444037  0.45181543    -0.80200
O235        O  0.46303503  0.05161171  0.61779550    -0.80000
O236        O  0.41877537  0.91834408  0.58447420    -0.78600
Zn237      Zn  0.45712499  0.95388429  0.45460427     1.55700
O238        O  0.46385824  0.11672995  0.55244344    -0.80000
Cd239      Cd  0.48242913  0.97817581  0.57723843     1.59700
Cd240      Cd  0.58147437  0.97768636  0.47934028     1.59600
O241        O  0.55397869  0.95168089  0.61656663    -0.80000
O242        O  0.50191060  0.99728798  0.49859265    -1.90500
Cd243      Cd  0.48275937  0.07583103  0.47920985     1.59900
O244        O  0.62027736  0.95522745  0.55231637    -0.80000
O245        O  0.41896997  0.08377664  0.41977839    -0.78600
C246        C  0.55026355  0.89428280  0.39597508     0.83900
C247        C  0.39639707  0.89338515  0.54397128     0.83600
O248        O  0.40962569  0.99446588  0.40466522    -0.77600
C249        C  0.46007330  0.10200947  0.60287537     0.84400
O250        O  0.50252980  0.90901404  0.41001526    -0.77700
C251        C  0.60443540  0.94878815  0.60203436     0.84500
C252        C  0.60444398  0.09974978  0.44861856     0.84800
O253        O  0.62029103  0.05014686  0.45559348    -0.80100
O254        O  0.99824869  0.66172411  0.66003553    -0.77600
C255        C  0.10215182  0.79712311  0.64519308     0.83400
O256        O  0.08156319  0.66779051  0.83485287    -0.78700
O257        O  0.04587248  0.86711115  0.80372952    -0.80200
O258        O  0.88061754  0.80452988  0.71202003    -0.80000
O259        O  0.90847741  0.67029680  0.66771911    -0.78600
Zn260      Zn  0.04231372  0.70627192  0.70672937     1.55700
O261        O  0.94648900  0.86933592  0.71185964    -0.80000
Cd262      Cd  0.91962454  0.73054279  0.73129521     1.59700
Cd263      Cd  0.01961804  0.72912348  0.82846356     1.59600
O264        O  0.88159451  0.70485542  0.80361020    -0.80000
O265        O  0.99912152  0.75001207  0.75063222    -1.90500
Cd266      Cd  0.01986711  0.82911698  0.73134451     1.59900
O267        O  0.94767160  0.70458780  0.86829316    -0.80000
O268        O  0.08038611  0.83916549  0.66771548    -0.78600
C269        C  0.10417558  0.64417445  0.79378489     0.83900
C270        C  0.95038491  0.64807268  0.64536445     0.83600
O271        O  0.08787698  0.74939897  0.65967347    -0.77600
C272        C  0.89598421  0.85474146  0.70844868     0.84400
O273        O  0.09127700  0.65638692  0.74503030    -0.77700
C274        C  0.89740769  0.69970049  0.85351288     0.84500
C275        C  0.04929750  0.85133621  0.85379415     0.84800
O276        O  0.04302666  0.80124988  0.86848218    -0.80100
O277        O  0.40865042  0.84464622  0.25429355    -0.77600
C278        C  0.39610749  0.70494214  0.35544934     0.83400
O279        O  0.59195482  0.82920117  0.33134110    -0.78700
O280        O  0.55313237  0.63073505  0.29206842    -0.80200
O281        O  0.45846974  0.69863492  0.13217498    -0.80000
O282        O  0.41988349  0.83268110  0.16466366    -0.78600
Zn283      Zn  0.45607310  0.79408977  0.29414650     1.55700
O284        O  0.45837216  0.63312019  0.19721337    -0.80000
Cd285      Cd  0.48132627  0.77052271  0.17215059     1.59700
Cd286      Cd  0.58042198  0.76805035  0.26947989     1.59600
O287        O  0.55367179  0.79274673  0.13213265    -0.80000
O288        O  0.50059546  0.75021545  0.25046729    -1.90500
Cd289      Cd  0.48115935  0.67185663  0.26980961     1.59900
O290        O  0.61933918  0.79042265  0.19700415    -0.80000
O291        O  0.41924911  0.66440451  0.33135415    -0.78600
C292        C  0.55001726  0.85165745  0.35328282     0.83900
C293        C  0.39674175  0.85679017  0.20522254     0.83600
O294        O  0.40830636  0.75396258  0.34375485    -0.77600
C295        C  0.45438915  0.64839432  0.14702681     0.84400
O296        O  0.50208242  0.83798310  0.33888440    -0.77700
C297        C  0.60407553  0.79563273  0.14694721     0.84500
C298        C  0.60365230  0.64501508  0.29545215     0.84800
O299        O  0.61921173  0.69498893  0.29093573    -0.80100
O300        O  0.15959296  0.74939881  0.58795698    -0.77600
C301        C  0.14528355  0.64807219  0.45046305     0.83400
O302        O  0.33477172  0.66779096  0.58164309    -0.78700
O303        O  0.30352917  0.70485580  0.38167338    -0.80200
O304        O  0.21177882  0.86933566  0.44656895    -0.80000
O305        O  0.16763562  0.83916559  0.58046626    -0.78600
Zn306      Zn  0.20664854  0.70627207  0.54239334     1.55700
O307        O  0.21193945  0.80452969  0.38069718    -0.80000
Cd308      Cd  0.23126410  0.82911691  0.51994720     1.59700
Cd309      Cd  0.32838242  0.72912404  0.51969766     1.59600
O310        O  0.30364852  0.86711169  0.54595193    -0.80000
O311        O  0.25055166  0.75001190  0.49920095    -1.90500
Cd312      Cd  0.23121468  0.73054256  0.41970358     1.59900
O313        O  0.36840102  0.80125041  0.54310623    -0.80000
O314        O  0.16763900  0.67029648  0.40855617    -0.78600
C315        C  0.29370368  0.64417475  0.60425480     0.83900
C316        C  0.14511238  0.79712323  0.60223236     0.83600
O317        O  0.15995502  0.66172466  0.49832809    -0.77600
C318        C  0.20836807  0.85474092  0.39606430     0.84400
O319        O  0.24494955  0.65638659  0.59135627    -0.77700
C320        C  0.35371415  0.85133725  0.54937730     0.84500
C321        C  0.35343263  0.69970039  0.39748726     0.84800
O322        O  0.36821179  0.70458764  0.44775117    -0.80100
O323        O  0.25031776  0.41064815  0.83939208    -0.77600
C324        C  0.35329521  0.39550633  0.70272755     0.83400
O325        O  0.33135806  0.58969614  0.83143822    -0.78700
O326        O  0.29325759  0.55181427  0.63139926    -0.80200
O327        O  0.13039833  0.45643229  0.69585830    -0.80000
O328        O  0.16039916  0.41681801  0.83071677    -0.78600
Zn329      Zn  0.29237711  0.45766460  0.79245678     1.55700
O330        O  0.19577802  0.45643207  0.63047815    -0.80000
Cd331      Cd  0.16986155  0.47916769  0.76898915     1.59700
Cd332      Cd  0.26943072  0.57884195  0.76951093     1.59600
O333        O  0.13132021  0.55181405  0.79333826    -0.80000
O334        O  0.24869366  0.50011230  0.74877364    -1.90500
Cd335      Cd  0.26890882  0.47916746  0.66994105     1.59900
O336        O  0.19663273  0.61733004  0.79312339    -0.80000
O337        O  0.33063633  0.41681776  0.66047832    -0.78600
C338        C  0.35369978  0.54790722  0.85377934     0.83900
C339        C  0.20264849  0.39550672  0.85337501     0.83600
O340        O  0.33931220  0.41064790  0.75039741    -0.77600
C341        C  0.14555678  0.45180937  0.64563679     0.84400
O342        O  0.33944853  0.50006909  0.83952797    -0.77700
C343        C  0.14660352  0.60188272  0.79824630     0.84500
C344        C  0.29816530  0.60188181  0.64668375     0.84800
O345        O  0.29304308  0.61732973  0.69671230    -0.80100
O346        O  0.50036911  0.41280393  0.91188645    -0.77600
C347        C  0.39723871  0.39853395  0.04815514     0.83400
O348        O  0.41860485  0.59090068  0.91868366    -0.78700
O349        O  0.45893446  0.55559767  0.11925714    -0.80200
O350        O  0.61918867  0.45997698  0.05391984    -0.80000
O351        O  0.59020025  0.42094733  0.91911583    -0.78600
Zn352      Zn  0.45855676  0.45976579  0.95863587     1.55700
O353        O  0.55384157  0.45997696  0.11926750    -0.80000
Cd354      Cd  0.58028847  0.48294092  0.98127527     1.59700
Cd355      Cd  0.48096236  0.58185728  0.98104126     1.59600
O356        O  0.61917806  0.55559786  0.95901397    -0.80000
O357        O  0.50160156  0.50331856  0.00168086    -1.90500
Cd358      Cd  0.48119613  0.48294070  0.08036801     1.59900
O359        O  0.55376937  0.62090413  0.95861427    -0.80000
O360        O  0.41903690  0.42094703  0.09027983    -0.78600
C361        C  0.39671732  0.54854422  0.89679631     0.83900
C362        C  0.54807613  0.39853464  0.89731801     0.83600
O363        O  0.41180737  0.41280357  0.00044823    -0.77600
C364        C  0.60403264  0.45543768  0.10411370     0.84400
O365        O  0.41145607  0.50106953  0.91153526    -0.77700
C366        C  0.60404211  0.60576604  0.95465546     0.84500
C367        C  0.45457585  0.60576600  0.10412198     0.84800
O368        O  0.45853480  0.62090423  0.05384808    -0.80100
loop_ 
_geom_bond_atom_site_label_1 
_geom_bond_atom_site_label_2 
_geom_bond_distance 
_geom_bond_site_symmetry_2 
_ccdc_geom_bond_type 
O1           C17   1.262   1_565  A
O1           Zn7   1.943       .  S
C2           O18   1.261   1_455  A
C2           O15   1.278       .  A
C2          C275   1.463       .  S
O3           C16   1.272       .  A
O3          Cd10   2.130       .  S
O4           C22   1.278       .  A
O4          Cd13   2.085   1_554  S
O5           C19   1.280       .  A
O5           Cd9   2.090   1_455  S
O6           C17   1.277       .  A
O6           Cd9   2.126       .  S
Zn7          O18   1.940       .  S
Zn7          O20   1.893   1_556  S
Zn7          O12   1.855   1_556  S
O8           C19   1.280       .  A
O8          Cd13   2.094   1_545  S
Cd9          O11   2.080   1_556  S
Cd9          O12   2.021   1_546  S
Cd10         O14   2.081   1_565  S
Cd10         O23   2.080   1_655  S
Cd10         O12   2.045       .  S
O11          C21   1.277       .  A
O12         Cd13   2.022   1_654  S
Cd13         O15   2.131       .  S
O14          C21   1.277       .  A
C16          O20   1.261       .  A
C16         C177   1.467       .  S
C17          C90   1.461       .  S
C19         C203   1.480       .  S
C21          C39   1.460       .  S
C22          O23   1.277       .  A
C22         C109   1.461       .  S
O24          C40   1.261       .  A
O24         Zn30   1.935       .  S
C25          O41   1.261       .  A
C25          O38   1.275       .  A
C25          C94   1.475       .  S
O26          C39   1.276       .  A
O26         Cd33   2.126       .  S
O27          C45   1.279       .  A
O27         Cd36   2.083   1_655  S
O28          C42   1.279       .  A
O28         Cd32   2.085       .  S
O29          C40   1.276       .  A
O29         Cd32   2.121       .  S
Zn30         O41   1.899       .  S
Zn30         O43   1.936       .  S
Zn30         O35   1.855   1_455  S
O31          C42   1.279       .  A
O31         Cd36   2.085       .  S
Cd32         O34   2.078   1_455  S
Cd32         O35   2.021   1_455  S
Cd33         O37   2.079       .  S
Cd33         O46   2.085       .  S
Cd33         O35   2.021       .  S
O34          C44   1.277       .  A
O35         Cd36   2.044   1_655  S
Cd36         O38   2.149       .  S
O37          C44   1.277       .  A
C39          O43   1.261   1_655  A
C40         C206   1.458       .  S
C42         C134   1.476       .  S
C44         C209   1.459       .  S
C45          O46   1.279       .  A
C45          C67   1.475       .  S
O47          C63   1.261       .  A
O47         Zn53   1.899       .  S
C48          O64   1.261       .  A
C48          O61   1.276       .  A
C48         C159   1.458       .  S
O49          C62   1.276       .  A
O49         Cd56   2.126       .  S
O50          C68   1.277       .  A
O50         Cd59   2.078       .  S
O51          C65   1.279       .  A
O51         Cd55   2.085       .  S
O52          C63   1.275       .  A
O52         Cd55   2.149       .  S
Zn53         O64   1.935       .  S
Zn53         O66   1.936       .  S
Zn53         O58   1.855       .  S
O54          C65   1.279       .  A
O54         Cd59   2.085       .  S
Cd55         O57   2.083       .  S
Cd55         O58   2.044       .  S
Cd56         O60   2.085       .  S
Cd56         O69   2.079       .  S
Cd56         O58   2.021       .  S
O57          C67   1.279       .  A
O58         Cd59   2.021       .  S
Cd59         O61   2.121       .  S
O60          C67   1.279       .  A
C62          O66   1.261       .  A
C62         C252   1.460       .  S
C63          C86   1.475       .  S
C65         C136   1.476       .  S
C68          O69   1.277       .  A
C68         C224   1.459       .  S
O70          C86   1.262       .  A
O70         Zn76   1.905       .  S
C71          O87   1.261   1_565  A
C71          O84   1.277       .  A
C71         C251   1.461       .  S
O72          C85   1.275       .  A
O72         Cd79   2.116       .  S
O73          C91   1.277       .  A
O73         Cd82   2.084       .  S
O74          C88   1.280       .  A
O74         Cd78   2.087   1_565  S
O75          C86   1.274       .  A
O75         Cd78   2.145       .  S
Zn76         O87   1.940       .  S
Zn76         O89   1.933       .  S
Zn76         O81   1.855       .  S
O77          C88   1.279       .  A
O77         Cd82   2.083       .  S
Cd78         O80   2.083       .  S
Cd78         O81   2.047       .  S
Cd79         O83   2.081       .  S
Cd79         O92   2.087   1_545  S
Cd79         O81   2.021       .  S
O80          C90   1.277       .  A
O81         Cd82   2.022   1_545  S
Cd82         O84   2.126       .  S
O83          C90   1.277       .  A
C85          O89   1.261       .  A
C85         C160   1.455       .  S
C88         C272   1.476       .  S
C91          O92   1.278       .  A
C91         C163   1.464       .  S
O93         C109   1.261   1_545  A
O93         Zn99   1.940       .  S
C94         O110   1.262       .  A
C94         O107   1.274       .  A
O95         C108   1.275       .  A
O95        Cd102   2.116       .  S
O96         C114   1.277       .  A
O96        Cd105   2.083       .  S
O97         C111   1.279       .  A
O97        Cd101   2.083       .  S
O98         C109   1.277       .  A
O98        Cd101   2.126       .  S
Zn99        O110   1.905       .  S
Zn99        O112   1.933       .  S
Zn99        O104   1.855       .  S
O100        C111   1.280       .  A
O100       Cd105   2.087   1_565  S
Cd101       O103   2.084       .  S
Cd101       O104   2.022   1_565  S
Cd102       O106   2.087   1_545  S
Cd102       O115   2.081       .  S
Cd102       O104   2.021       .  S
O103        C113   1.277       .  A
O104       Cd105   2.047       .  S
Cd105       O107   2.145       .  S
O106        C113   1.278       .  A
C108        O112   1.261       .  A
C108        C205   1.455       .  S
C111        C318   1.476       .  S
C113        C293   1.464       .  S
C114        O115   1.277       .  A
C114        C232   1.461       .  S
O116        C132   1.261       .  A
O116       Zn122   1.943       .  S
C117        O133   1.262       .  A
C117        O130   1.274       .  A
C117        C301   1.474       .  S
O118        C131   1.274       .  A
O118       Cd125   2.143       .  S
O119        C137   1.276       .  A
O119       Cd128   2.071   1_655  S
O120        C134   1.279       .  A
O120       Cd124   2.085       .  S
O121        C132   1.279       .  A
O121       Cd124   2.140       .  S
Zn122       O133   1.905       .  S
Zn122       O135   1.905   1_455  S
Zn122       O127   1.836   1_455  S
O123        C134   1.280       .  A
O123       Cd128   2.087       .  S
Cd124       O126   2.085   1_455  S
Cd124       O127   2.020   1_455  S
Cd125       O129   2.087       .  S
Cd125       O138   2.071       .  S
Cd125       O127   2.042       .  S
O126        C136   1.279       .  A
O127       Cd128   2.042   1_655  S
Cd128       O130   2.143       .  S
O129        C136   1.280       .  A
C131        O135   1.262       .  A
C131        C270   1.474       .  S
C132        C341   1.467       .  S
C137        O138   1.276       .  A
C137        C223   1.453       .  S
O139        C155   1.261       .  A
O139       Zn145   1.907       .  S
C140        O156   1.262       .  A
C140        O153   1.275       .  A
C140        C201   1.478       .  S
O141        C154   1.273       .  A
O141       Cd148   2.142       .  S
O142        C160   1.277       .  A
O142       Cd151   2.076       .  S
O143        C157   1.281       .  A
O143       Cd147   2.094       .  S
O144        C155   1.275       .  A
O144       Cd147   2.147       .  S
Zn145       O156   1.911       .  S
Zn145       O158   1.915       .  S
Zn145       O150   1.820       .  S
O146        C157   1.281       .  A
O146       Cd151   2.093       .  S
Cd147       O149   2.077       .  S
Cd147       O150   2.039       .  S
Cd148       O152   2.081       .  S
Cd148       O161   2.077       .  S
Cd148       O150   2.040       .  S
O149        C159   1.277       .  A
O150       Cd151   2.040       .  S
Cd151       O153   2.150       .  S
O152        C159   1.278       .  A
C154        O158   1.262       .  A
C154        C362   1.476       .  S
C155        C324   1.476       .  S
C157        C249   1.480       .  S
C160        O161   1.278       .  A
O162        C178   1.261       .  A
O162       Zn168   1.937       .  S
C163        O179   1.261       .  A
C163        O176   1.277       .  A
O164        C177   1.273       .  A
O164       Cd171   2.133       .  S
O165        C183   1.278       .  A
O165       Cd174   2.080   1_554  S
O166        C180   1.278       .  A
O166       Cd170   2.075       .  S
O167        C178   1.277       .  A
O167       Cd170   2.129       .  S
Zn168       O179   1.942       .  S
Zn168       O181   1.890   1_556  S
Zn168       O173   1.854   1_556  S
O169        C180   1.278       .  A
O169       Cd174   2.076       .  S
Cd170       O172   2.085   1_556  S
Cd170       O173   2.019   1_556  S
Cd171       O175   2.077       .  S
Cd171       O184   2.072       .  S
Cd171       O173   2.040       .  S
O172        C182   1.278       .  A
O173       Cd174   2.020   1_554  S
Cd174       O176   2.132       .  S
O175        C182   1.278       .  A
C177        O181   1.260       .  A
C178        C274   1.461       .  S
C180        C366   1.471       .  S
C182        C229   1.474       .  S
C183        O184   1.277       .  A
C183        C297   1.471       .  S
O185        C201   1.262       .  A
O185       Zn191   1.911       .  S
C186        O202   1.261       .  A
C186        O199   1.275       .  A
C186        C339   1.476       .  S
O187        C200   1.273       .  A
O187       Cd194   2.142       .  S
O188        C206   1.277       .  A
O188       Cd197   2.077   1_554  S
O189        C203   1.281       .  A
O189       Cd193   2.093       .  S
O190        C201   1.275       .  A
O190       Cd193   2.150       .  S
Zn191       O202   1.907       .  S
Zn191       O204   1.915   1_556  S
Zn191       O196   1.820   1_556  S
O192        C203   1.281       .  A
O192       Cd197   2.094       .  S
Cd193       O195   2.076   1_556  S
Cd193       O196   2.040   1_556  S
Cd194       O198   2.077       .  S
Cd194       O207   2.081       .  S
Cd194       O196   2.040       .  S
O195        C205   1.277       .  A
O196       Cd197   2.039   1_554  S
Cd197       O199   2.147       .  S
O198        C205   1.278       .  A
C200        O204   1.262       .  A
C200        C347   1.476       .  S
C206        O207   1.278       .  A
O208        C224   1.262       .  A
O208       Zn214   1.941       .  S
C209        O225   1.262       .  A
C209        O222   1.277       .  A
O210        C223   1.275       .  A
O210       Cd217   2.111       .  S
O211        C229   1.278       .  A
O211       Cd220   2.084       .  S
O212        C226   1.277       .  A
O212       Cd216   2.074       .  S
O213        C224   1.277       .  A
O213       Cd216   2.123       .  S
Zn214       O225   1.941       .  S
Zn214       O227   1.936       .  S
Zn214       O219   1.876       .  S
O215        C226   1.277       .  A
O215       Cd220   2.074       .  S
Cd216       O218   2.084       .  S
Cd216       O219   2.022       .  S
Cd217       O221   2.075       .  S
Cd217       O230   2.075       .  S
Cd217       O219   2.019       .  S
O218        C228   1.278       .  A
O219       Cd220   2.022       .  S
Cd220       O222   2.123       .  S
O221        C228   1.277       .  A
C223        O227   1.262       .  A
C226        C364   1.470       .  S
C228        C298   1.474       .  S
C229        O230   1.277       .  A
O231        C247   1.261       .  A
O231       Zn237   1.940       .  S
C232        O248   1.262   1_545  A
C232        O245   1.277       .  A
O233        C246   1.272       .  A
O233       Cd240   2.130       .  S
O234        C252   1.277       .  A
O234       Cd243   2.080       .  S
O235        C249   1.280       .  A
O235       Cd239   2.094   1_545  S
O236        C247   1.278       .  A
O236       Cd239   2.131       .  S
Zn237       O248   1.943       .  S
Zn237       O250   1.893       .  S
Zn237       O242   1.855       .  S
O238        C249   1.280       .  A
O238       Cd243   2.090       .  S
Cd239       O241   2.085       .  S
Cd239       O242   2.022       .  S
Cd240       O244   2.080       .  S
Cd240       O253   2.081   1_565  S
Cd240       O242   2.045       .  S
O241        C251   1.278       .  A
O242       Cd243   2.021   1_565  S
Cd243       O245   2.126       .  S
O244        C251   1.277       .  A
C246        O250   1.261       .  A
C246        C292   1.467       .  S
C247        C320   1.463       .  S
C252        O253   1.277       .  A
O254        C270   1.261       .  A
O254       Zn260   1.899   1_655  S
C255        O271   1.262       .  A
C255        O268   1.275       .  A
C255        C316   1.476       .  S
O256        C269   1.276       .  A
O256       Cd263   2.124       .  S
O257        C275   1.278       .  A
O257       Cd266   2.085       .  S
O258        C272   1.280       .  A
O258       Cd262   2.086       .  S
O259        C270   1.274       .  A
O259       Cd262   2.147       .  S
Zn260       O271   1.906       .  S
Zn260       O273   1.936       .  S
Zn260       O265   1.836   1_455  S
O261        C272   1.280       .  A
O261       Cd266   2.087   1_655  S
Cd262       O264   2.081       .  S
Cd262       O265   2.043       .  S
Cd263       O267   2.085   1_455  S
Cd263       O276   2.085       .  S
Cd263       O265   2.020   1_455  S
O264        C274   1.278       .  A
O265       Cd266   2.043   1_655  S
Cd266       O268   2.148       .  S
O267        C274   1.278       .  A
C269        O273   1.260       .  A
C269        C343   1.460       .  S
C275        O276   1.278       .  A
O277        C293   1.261       .  A
O277       Zn283   1.942       .  S
C278        O294   1.261       .  A
C278        O291   1.277       .  A
C278        C321   1.461       .  S
O279        C292   1.273       .  A
O279       Cd286   2.133       .  S
O280        C298   1.278       .  A
O280       Cd289   2.085       .  S
O281        C295   1.278       .  A
O281       Cd285   2.076       .  S
O282        C293   1.277       .  A
O282       Cd285   2.132       .  S
Zn283       O294   1.937       .  S
Zn283       O296   1.890       .  S
Zn283       O288   1.854       .  S
O284        C295   1.278       .  A
O284       Cd289   2.075       .  S
Cd285       O287   2.080       .  S
Cd285       O288   2.020       .  S
Cd286       O290   2.071       .  S
Cd286       O299   2.077       .  S
Cd286       O288   2.040       .  S
O287        C297   1.278       .  A
O288       Cd289   2.019       .  S
Cd289       O291   2.129       .  S
O290        C297   1.277       .  A
C292        O296   1.260       .  A
C295        C367   1.470       .  S
C298        O299   1.278       .  A
O300        C316   1.262       .  A
O300       Zn306   1.906       .  S
C301        O317   1.261       .  A
C301        O314   1.274       .  A
O302        C315   1.276       .  A
O302       Cd309   2.124       .  S
O303        C321   1.278       .  A
O303       Cd312   2.081       .  S
O304        C318   1.280       .  A
O304       Cd308   2.087       .  S
O305        C316   1.275       .  A
O305       Cd308   2.148       .  S
Zn306       O317   1.899       .  S
Zn306       O319   1.936       .  S
Zn306       O311   1.836       .  S
O307        C318   1.280       .  A
O307       Cd312   2.086       .  S
Cd308       O310   2.085       .  S
Cd308       O311   2.043       .  S
Cd309       O313   2.085       .  S
Cd309       O322   2.085       .  S
Cd309       O311   2.020       .  S
O310        C320   1.278       .  A
O311       Cd312   2.043       .  S
Cd312       O314   2.147       .  S
O313        C320   1.278       .  A
C315        O319   1.260       .  A
C315        C344   1.460       .  S
C321        O322   1.278       .  A
O323        C339   1.262       .  A
O323       Zn329   1.911       .  S
C324        O340   1.262       .  A
C324        O337   1.274       .  A
O325        C338   1.273       .  A
O325       Cd332   2.143       .  S
O326        C344   1.279       .  A
O326       Cd335   2.085       .  S
O327        C341   1.280       .  A
O327       Cd331   2.093       .  S
O328        C339   1.274       .  A
O328       Cd331   2.145       .  S
Zn329       O340   1.911       .  S
Zn329       O342   1.918       .  S
Zn329       O334   1.821       .  S
O330        C341   1.280       .  A
O330       Cd335   2.093       .  S
Cd331       O333   2.085       .  S
Cd331       O334   2.042       .  S
Cd332       O336   2.082       .  S
Cd332       O345   2.082       .  S
Cd332       O334   2.043       .  S
O333        C343   1.279       .  A
O334       Cd335   2.042       .  S
Cd335       O337   2.145       .  S
O336        C343   1.278       .  A
C338        O342   1.263       .  A
C338        C361   1.477       .  S
C344        O345   1.278       .  A
O346        C362   1.261       .  A
O346       Zn352   1.905       .  S
C347        O363   1.261       .  A
C347        O360   1.275       .  A
O348        C361   1.276       .  A
O348       Cd355   2.153       .  S
O349        C367   1.279       .  A
O349       Cd358   2.076       .  S
O350        C364   1.279       .  A
O350       Cd354   2.077   1_554  S
O351        C362   1.275       .  A
O351       Cd354   2.148       .  S
Zn352       O363   1.905   1_556  S
Zn352       O365   1.904       .  S
Zn352       O357   1.819   1_556  S
O353        C364   1.279       .  A
O353       Cd358   2.077       .  S
Cd354       O356   2.076       .  S
Cd354       O357   2.036   1_556  S
Cd355       O359   2.081       .  S
Cd355       O368   2.081   1_556  S
Cd355       O357   2.037   1_556  S
O356        C366   1.279       .  A
O357       Cd358   2.036       .  S
Cd358       O360   2.148       .  S
O359        C366   1.279       .  A
C361        O365   1.260       .  A
C367        O368   1.279       .  A
