geometry optimzed in LAMMPS
_audit_creation_date              2020-11-30 
_audit_creation_method            'lammps2cif' 
_symmetry_space_group_name_H-M    'P1' 
_symmetry_Int_Tables_number       1 
_symmetry_cell_setting            triclinic 
loop_ 
_symmetry_equiv_pos_as_xyz 
  x,y,z 
_cell_length_a                    46.65264787 
_cell_length_b                    46.338743794157494 
_cell_length_c                    73.21703083737901 
_cell_angle_alpha                 90.09612621618402 
_cell_angle_beta                  90.11043724756371 
_cell_angle_gamma                 88.88831765635328 
loop_ 
_atom_site_label 
_atom_site_type_symbol 
_atom_site_fract_x 
_atom_site_fract_y 
_atom_site_fract_z 
_atom_site_charge 
N1          N  0.00409724  0.01618796  0.14228842    -0.36500
N2          N  0.03901892  0.46465219  0.14572837    -0.57100
N3          N  0.52755415  0.46457902  0.18560138    -0.36500
N4          N  0.49489368  0.01576809  0.18269436    -0.57100
C5          C  0.01664400  0.01504215  0.12558628     0.27100
C6          C  0.99694188  0.04411159  0.14554425     0.27100
C7          C  0.54805661  0.44388675  0.18379764     0.27100
C8          C  0.52587192  0.47155284  0.20358400     0.27100
C9          C  0.03570593  0.46515098  0.12736882     0.35700
C10         C  0.04637748  0.43722132  0.15004093     0.35700
C11         C  0.47921698  0.03913940  0.17771036     0.35700
C12         C  0.48941900  0.01081365  0.20055078     0.35700
C13         C  0.01606175  0.04217078  0.11773418    -0.21800
C14         C  0.00402984  0.06062685  0.13042515    -0.21800
C15         C  0.55966860  0.43745178  0.20078394    -0.21800
C16         C  0.54588982  0.45517177  0.21326858    -0.21800
C17         C  0.04174178  0.43826291  0.11993592    -0.22800
C18         C  0.04817702  0.42040612  0.13434392    -0.22800
C19         C  0.46334488  0.04913497  0.19251315    -0.22800
C20         C  0.46938956  0.03085389  0.20690506    -0.22800
C21         C  0.02816946  0.98996423  0.11716841    -0.18200
C22         C  0.98489630  0.05545591  0.16189192    -0.18200
C23         C  0.50517052  0.99078027  0.21146129    -0.18200
C24         C  0.05242397  0.42728011  0.16787791    -0.18200
H25         H  0.02424236  0.04818187  0.10447971     0.14700
H26         H  0.00097890  0.08368056  0.12872096     0.14700
H27         H  0.57568901  0.42096756  0.20389072     0.14700
H28         H  0.54948819  0.45524430  0.22787569     0.14700
H29         H  0.04123369  0.43211534  0.10567294     0.13000
H30         H  0.05379214  0.39768806  0.13333357     0.13000
H31         H  0.45005634  0.06852446  0.19310280     0.13000
H32         H  0.46144002  0.03323053  0.22071059     0.13000
H33         H  0.99941571  0.99876252  0.15062506     0.26300
H34         H  0.51267533  0.46974408  0.17548877     0.26300
N35         N  0.05568671  0.26512166  0.14653844    -0.36500
N36         N  0.55110548  0.26510867  0.18734258    -0.57100
N37         N  0.52122490  0.21368880  0.18648191    -0.36500
N38         N  0.02331675  0.21359442  0.14579835    -0.57100
C39         C  0.05996072  0.29313229  0.15063271     0.27100
C40         C  0.04922565  0.26374693  0.12847358     0.27100
C41         C  0.51618727  0.22150743  0.20407328     0.27100
C42         C  0.50217402  0.19339100  0.18205142     0.27100
C43         C  0.56765447  0.28799335  0.18433130     0.35700
C44         C  0.55182363  0.25988850  0.20549157     0.35700
C45         C  0.03185298  0.21387807  0.12812089     0.35700
C46         C  0.01444063  0.18658259  0.14913820     0.35700
C47         C  0.05732249  0.30956235  0.13481834    -0.21800
C48         C  0.05095984  0.29090980  0.12078998    -0.21800
C49         C  0.49351845  0.20585618  0.21084195    -0.21800
C50         C  0.48494927  0.18776599  0.19698854    -0.21800
C51         C  0.57942982  0.29730802  0.20067406    -0.22800
C52         C  0.56987158  0.27905925  0.21407486    -0.22800
C53         C  0.02769776  0.18725586  0.12008073    -0.22800
C54         C  0.01690036  0.16983954  0.13344016    -0.22800
C55         C  0.06629048  0.30439041  0.16818374    -0.18200
C56         C  0.04149353  0.23854723  0.11888786    -0.18200
C57         C  0.00299599  0.17699396  0.16589660    -0.18200
C58         C  0.53278671  0.24112130  0.21433543    -0.18200
H59         H  0.05971441  0.33265093  0.13349275     0.14700
H60         H  0.04713057  0.29680795  0.10668454     0.14700
H61         H  0.48461813  0.20676171  0.22447394     0.14700
H62         H  0.46833036  0.17185705  0.19788407     0.14700
H63         H  0.59228748  0.31621820  0.20280359     0.13000
H64         H  0.57398259  0.28103632  0.22857108     0.13000
H65         H  0.03201535  0.18106420  0.10607802     0.13000
H66         H  0.01116699  0.14747799  0.13170548     0.13000
H67         H  0.05850050  0.24781256  0.15543295     0.26300
H68         H  0.53911277  0.21836676  0.17865173     0.26300
N69         N  0.24693145  0.48094847  0.14781900    -0.36500
N70         N  0.24931009  0.48447666  0.18802765    -0.57100
N71         N  0.21386812  0.03382377  0.18716897    -0.36500
N72         N  0.20916690  0.03111659  0.14714436    -0.57100
C73         C  0.25502814  0.45370067  0.15225464     0.27100
C74         C  0.23741706  0.48025223  0.13034998     0.27100
C75         C  0.21296751  0.02808022  0.20527746     0.27100
C76         C  0.19356443  0.05406623  0.18362768     0.27100
C77         C  0.26759436  0.46233165  0.18483786     0.35700
C78         C  0.25239521  0.49193095  0.20571089     0.35700
C79         C  0.21576355  0.02930260  0.12918519     0.35700
C80         C  0.20039064  0.05865966  0.15014335     0.35700
C81         C  0.25152930  0.43577970  0.13720859    -0.21800
C82         C  0.24096827  0.45267930  0.12328899    -0.21800
C83         C  0.19115612  0.04449028  0.21326329    -0.21800
C84         C  0.17925951  0.06133931  0.19960498    -0.21800
C85         C  0.28273065  0.45554255  0.20060459    -0.22800
C86         C  0.27358366  0.47484640  0.21378875    -0.22800
C87         C  0.20998629  0.05535640  0.12058712    -0.22800
C88         C  0.20062310  0.07413917  0.13394484    -0.22800
C89         C  0.26539575  0.44435719  0.16947679    -0.18200
C90         C  0.22632453  0.00408916  0.12048812    -0.18200
C91         C  0.19227878  0.07006975  0.16733385    -0.18200
C92         C  0.23349878  0.51120324  0.21488255    -0.18200
H93         H  0.25619372  0.41286614  0.13625282     0.14700
H94         H  0.23584194  0.44527589  0.10966881     0.14700
H95         H  0.18557620  0.04551249  0.22759488     0.14700
H96         H  0.16290598  0.07799922  0.20134417     0.14700
H97         H  0.29773092  0.43769675  0.20256032     0.13000
H98         H  0.28030388  0.47494715  0.22794249     0.13000
H99         H  0.21285391  0.06045386  0.10629529     0.13000
H100        H  0.19463424  0.09660303  0.13196610     0.13000
H101        H  0.24934063  0.49927054  0.15584733     0.26300
H102        H  0.23056519  0.02873775  0.17829691     0.26300
N103        N  0.23479273  0.28551668  0.14911620    -0.36500
N104        N  0.24017071  0.28250545  0.18918423    -0.57100
N105        N  0.20947663  0.23072820  0.18912105    -0.36500
N106        N  0.20147005  0.23386378  0.14903989    -0.57100
C107        C  0.24198395  0.31285018  0.15323195     0.27100
C108        C  0.22492630  0.28558885  0.13171654     0.27100
C109        C  0.20950873  0.23612826  0.20732871     0.27100
C110        C  0.19101625  0.20928207  0.18601001     0.27100
C111        C  0.25706412  0.30495242  0.18559930     0.35700
C112        C  0.24472290  0.27532739  0.20681697     0.35700
C113        C  0.20677745  0.23586404  0.13091467     0.35700
C114        C  0.19461492  0.20610054  0.15208475     0.35700
C115        C  0.23686464  0.33045103  0.13817913    -0.21800
C116        C  0.22659352  0.31308343  0.12448362    -0.21800
C117        C  0.19040834  0.21800352  0.21586030    -0.21800
C118        C  0.17904932  0.20071984  0.20239736    -0.21800
C119        C  0.27264020  0.31217942  0.20103984    -0.22800
C120        C  0.26502488  0.29314947  0.21448083    -0.22800
C121        C  0.20177868  0.20979437  0.12232610    -0.22800
C122        C  0.19438692  0.19083341  0.13576617    -0.22800
C123        C  0.25440686  0.32210506  0.16984206    -0.18200
C124        C  0.21618360  0.26094900  0.12200998    -0.18200
C125        C  0.18911088  0.19398656  0.16940224    -0.18200
C126        C  0.22832113  0.25509484  0.21643412    -0.18200
H127        H  0.24078462  0.35332100  0.13700840     0.14700
H128        H  0.22090311  0.31996208  0.11081452     0.14700
H129        H  0.18613209  0.21646489  0.23034568     0.14700
H130        H  0.16445608  0.18314912  0.20446360     0.14700
H131        H  0.28708259  0.33001928  0.20261627     0.13000
H132        H  0.27257269  0.29326560  0.22846774     0.13000
H133        H  0.20394794  0.20472759  0.10795509     0.13000
H134        H  0.18967418  0.16827270  0.13375242     0.13000
H135        H  0.23917148  0.26736144  0.15702680     0.26300
H136        H  0.22447642  0.23744421  0.17967062     0.26300
N137        N  0.01381108  0.00828394  0.35993480    -0.36500
N138        N  0.45983344  0.98523318  0.35923522    -0.57100
N139        N  0.46261989  0.97774123  0.31811755    -0.36500
N140        N  0.01756812  0.00164572  0.31941365    -0.57100
C141        C  0.00506112  0.01595180  0.37690885     0.27100
C142        C  0.03529987  0.02574132  0.35548870     0.27100
C143        C  0.43418284  0.97873832  0.32141107     0.27100
C144        C  0.46639043  0.98441237  0.30020269     0.27100
C145        C  0.46262208  0.98587745  0.37764724     0.35700
C146        C  0.43531047  0.97175784  0.35548084     0.35700
C147        C  0.04484835  0.00724537  0.32403451     0.35700
C148        C  0.01817371  0.99159984  0.30203887     0.35700
C149        C  0.02141933  0.03838898  0.38339014    -0.21800
C150        C  0.04057910  0.04464822  0.36979554    -0.21800
C151        C  0.41962157  0.98490988  0.30524688    -0.21800
C152        C  0.43997609  0.98834347  0.29185280    -0.21800
C153        C  0.43995087  0.97214072  0.38577504    -0.22800
C154        C  0.42244755  0.96341147  0.37172152    -0.22800
C155        C  0.06303859  0.00040126  0.30960548    -0.22800
C156        C  0.04606834  0.99047545  0.29563270    -0.22800
C157        C  0.48341454  0.00224839  0.38682387    -0.18200
C158        C  0.05288245  0.02193420  0.34011049    -0.18200
C159        C  0.49325711  0.98730424  0.29143300    -0.18200
C160        C  0.42091347  0.97437180  0.33857335    -0.18200
H161        H  0.01988751  0.04892615  0.39656554     0.14700
H162        H  0.05711973  0.06067072  0.37055686     0.14700
H163        H  0.39666728  0.98703614  0.30332194     0.14700
H164        H  0.43583297  0.99384912  0.27772045     0.14700
H165        H  0.43555848  0.97032184  0.40023212     0.13000
H166        H  0.40163457  0.95379488  0.37328035     0.13000
H167        H  0.08597484  0.00335944  0.30896325     0.13000
H168        H  0.05323784  0.98424164  0.28211493     0.13000
H169        H  0.00861427  0.98968381  0.35275104     0.26300
H170        H  0.47833328  0.97142449  0.32749617     0.26300
N171        N  0.02963921  0.23873118  0.36256279    -0.36500
N172        N  0.47575332  0.26511327  0.35863292    -0.57100
N173        N  0.48234254  0.26394773  0.31817336    -0.36500
N174        N  0.03687515  0.23614787  0.32252076    -0.57100
C175        C  0.02009681  0.23580042  0.37987413     0.27100
C176        C  0.05274549  0.22125916  0.36072279     0.27100
C177        C  0.45375737  0.26755842  0.32010921     0.27100
C178        C  0.48716310  0.25403415  0.30097377     0.27100
C179        C  0.47813069  0.26845235  0.37691752     0.35700
C180        C  0.45250774  0.28047952  0.35335775     0.35700
C181        C  0.06405125  0.23197705  0.32830472     0.35700
C182        C  0.03859148  0.24400266  0.30478698     0.35700
C183        C  0.03728076  0.21590504  0.38910987    -0.21800
C184        C  0.05811905  0.20683965  0.37699677    -0.21800
C185        C  0.44025990  0.26055229  0.30378695    -0.21800
C186        C  0.46139882  0.25201625  0.29170661    -0.21800
C187        C  0.45637647  0.28634580  0.38338984    -0.22800
C188        C  0.43988871  0.29374996  0.36845970    -0.22800
C189        C  0.08309052  0.23681380  0.31413565    -0.22800
C190        C  0.06688191  0.24440666  0.29917827    -0.22800
C191        C  0.49795888  0.25284594  0.38779731    -0.18200
C192        C  0.07180513  0.22258008  0.34597973    -0.18200
C193        C  0.51454044  0.24830550  0.29336403    -0.18200
C194        C  0.43956567  0.27769849  0.33603844    -0.18200
H195        H  0.03567171  0.20949795  0.40327387     0.14700
H196        H  0.07593825  0.19231830  0.38003516     0.14700
H197        H  0.41751645  0.26156623  0.30084708     0.14700
H198        H  0.45820709  0.24517421  0.27772075     0.14700
H199        H  0.45206964  0.29224598  0.39744184     0.13000
H200        H  0.42016391  0.30640724  0.36881393     0.13000
H201        H  0.10621353  0.23482959  0.31448814     0.13000
H202        H  0.07491345  0.24940616  0.28571337     0.13000
H203        H  0.02426234  0.25520135  0.35348751     0.26300
H204        H  0.49771928  0.27030539  0.32759652     0.26300
N205        N  0.20904701  0.54871042  0.35967972    -0.36500
N206        N  0.20894444  0.54392370  0.31913941    -0.57100
N207        N  0.26303775  0.51432673  0.32210236    -0.36500
N208        N  0.26280838  0.52093909  0.36253625    -0.57100
C209        C  0.18485179  0.56317732  0.35504108     0.27100
C210        C  0.21351709  0.55270906  0.37780318     0.27100
C211        C  0.26188804  0.51942741  0.30389982     0.27100
C212        C  0.29082091  0.50978215  0.32642857     0.27100
C213        C  0.18073522  0.54769052  0.32239707     0.35700
C214        C  0.21083717  0.53261546  0.30213182     0.35700
C215        C  0.25658878  0.52089933  0.38053250     0.35700
C216        C  0.28619273  0.50398908  0.36029729     0.35700
C217        C  0.17395191  0.57732359  0.37031974    -0.21800
C218        C  0.19224242  0.57097387  0.38466825    -0.21800
C219        C  0.28908382  0.51758899  0.29648560    -0.21800
C220        C  0.30745001  0.51179348  0.31073276    -0.21800
C221        C  0.16492359  0.53960341  0.30714298    -0.22800
C222        C  0.18411247  0.53072628  0.29415481    -0.22800
C223        C  0.27642866  0.50391272  0.38991353    -0.22800
C224        C  0.29535324  0.49326212  0.37704665    -0.22800
C225        C  0.16882540  0.55703625  0.33916936    -0.18200
C226        C  0.23416488  0.53746094  0.38851780    -0.18200
C227        C  0.30144060  0.50150851  0.34378819    -0.18200
C228        C  0.23656533  0.52386630  0.29377733    -0.18200
H229        H  0.15379044  0.58919009  0.37126720     0.14700
H230        H  0.18911977  0.57742341  0.39875075     0.14700
H231        H  0.29505377  0.52002625  0.28230367     0.14700
H232        H  0.33043144  0.50873567  0.30954656     0.14700
H233        H  0.14189574  0.53947713  0.30550424     0.13000
H234        H  0.17888703  0.52254239  0.28072827     0.13000
H235        H  0.27749712  0.50010805  0.40448195     0.13000
H236        H  0.31409493  0.47978379  0.37972944     0.13000
H237        H  0.21806499  0.53259553  0.35158772     0.26300
H238        H  0.24572492  0.51067279  0.33066791     0.26300
N239        N  0.23378568  0.23233011  0.36399693    -0.36500
N240        N  0.22453041  0.23562834  0.32394252    -0.57100
N241        N  0.27394728  0.27094923  0.32098355    -0.36500
N242        N  0.28337906  0.26489009  0.36145680    -0.57100
C243        C  0.21173478  0.21441396  0.36178415     0.27100
C244        C  0.24323377  0.22923410  0.38139583     0.27100
C245        C  0.26890114  0.26534863  0.30304910     0.27100
C246        C  0.30207992  0.27688012  0.32260419     0.27100
C247        C  0.19889540  0.22581361  0.32936669     0.35700
C248        C  0.22091628  0.24447310  0.30645680     0.35700
C249        C  0.28233405  0.26436121  0.37990371     0.35700
C250        C  0.30540569  0.28153902  0.35680646     0.35700
C251        C  0.20709743  0.19941286  0.37783351    -0.21800
C252        C  0.22722341  0.20856064  0.39019871    -0.21800
C253        C  0.29362170  0.26952105  0.29306479    -0.21800
C254        C  0.31466055  0.27634721  0.30540786    -0.21800
C255        C  0.17931121  0.22756656  0.31507995    -0.22800
C256        C  0.19338780  0.23905398  0.30049988    -0.22800
C257        C  0.30380937  0.28109518  0.38715122    -0.22800
C258        C  0.31879395  0.29160984  0.37247648    -0.22800
C259        C  0.19231871  0.21603155  0.34713893    -0.18200
C260        C  0.26369246  0.24684307  0.39000993    -0.18200
C261        C  0.31706634  0.28249967  0.33906995    -0.18200
C262        C  0.24264793  0.25610081  0.29554191    -0.18200
H263        H  0.19004045  0.18454702  0.38060082     0.14700
H264        H  0.22890769  0.20183278  0.40431522     0.14700
H265        H  0.29649931  0.26695858  0.27848603     0.14700
H266        H  0.33681932  0.28033804  0.30206049     0.14700
H267        H  0.15714816  0.22116929  0.31512941     0.13000
H268        H  0.18425743  0.24332059  0.28715509     0.13000
H269        H  0.30902808  0.28412547  0.40142722     0.13000
H270        H  0.33802274  0.30426762  0.37321172     0.13000
H271        H  0.23788758  0.24915835  0.35526697     0.26300
H272        H  0.25896453  0.27204280  0.33136240     0.26300
O273        O  0.48273719  0.50289440  0.47618103    -0.72800
O274        O  0.48095730  0.51421864  0.53077697    -0.73800
O275        O  0.43712736  0.51020887  0.50287289    -0.62400
O276        O  0.02747863  0.50746590  0.50401665    -0.70800
O277        O  0.02784145  0.05452013  0.49978790    -0.70400
O278        O  0.43745830  0.05748545  0.50016465    -0.61700
O279        O  0.48326891  0.06140478  0.52749202    -0.74200
O280        O  0.48231176  0.05035410  0.47211380    -0.72900
Cu281      Cu  0.48208328  0.50719420  0.50357014     1.04600
Cu282      Cu  0.48272425  0.05755190  0.49972731     1.04300
C283        C  0.48252779  0.52459686  0.46544551     0.93400
C284        C  0.48204742  0.53926059  0.53802149     0.92500
C285        C  0.42276449  0.53417284  0.50173823     0.84600
C286        C  0.04214431  0.53056776  0.50196175     0.90900
O287        O  0.49908640  0.22072437  0.47426105    -0.72800
O288        O  0.49930806  0.21153250  0.52926383    -0.73800
O289        O  0.45457638  0.21611982  0.50221595    -0.62400
O290        O  0.04493654  0.21559928  0.50179341    -0.70800
O291        O  0.04449640  0.26263159  0.50492595    -0.70400
O292        O  0.45406982  0.26346594  0.50530342    -0.61700
O293        O  0.49995062  0.25885460  0.53218442    -0.74200
O294        O  0.49837809  0.26818496  0.47751923    -0.72900
Cu295      Cu  0.49960274  0.21441278  0.50171888     1.04600
Cu296      Cu  0.49927219  0.26483158  0.50503944     1.04300
C297        C  0.49816023  0.24596555  0.46716852     0.93400
C298        C  0.49912313  0.23391893  0.53950106     0.92500
C299        C  0.44000717  0.23983503  0.50405886     0.84600
C300        C  0.05932833  0.23894283  0.50356059     0.90900
O301        O  0.18601280  0.05537447  0.50513021    -0.72800
O302        O  0.27640684  0.05819818  0.50596856    -0.73800
O303        O  0.23090094  0.06088743  0.47810174    -0.62400
O304        O  0.23092525  0.05254366  0.53336789    -0.70800
O305        O  0.23498310  0.50538157  0.53030120    -0.70400
O306        O  0.23321310  0.51339025  0.47555593    -0.61700
O307        O  0.27882226  0.51105153  0.50268011    -0.74200
O308        O  0.18859574  0.50802404  0.50288859    -0.72900
Cu309      Cu  0.23102742  0.05835477  0.50577805     1.04600
Cu310      Cu  0.23395905  0.50793837  0.50279442     1.04300
C311        C  0.17291187  0.03123100  0.50367460     0.93400
C312        C  0.29207568  0.03507894  0.50432613     0.92500
C313        C  0.23146882  0.53826243  0.46808087     0.84600
C314        C  0.23335832  0.02752869  0.54067519     0.90900
O315        O  0.25209768  0.21246861  0.53203406    -0.72800
O316        O  0.25285136  0.21607974  0.47694229    -0.73800
O317        O  0.29687688  0.21500212  0.50475642    -0.62400
O318        O  0.20643784  0.21406268  0.50417458    -0.70800
O319        O  0.20540415  0.26121373  0.50573688    -0.70400
O320        O  0.29540965  0.26251550  0.50651734    -0.61700
O321        O  0.25190372  0.26377384  0.47860767    -0.74200
O322        O  0.24958980  0.25976335  0.53382527    -0.72900
Cu323      Cu  0.25197740  0.21283235  0.50445310     1.04600
Cu324      Cu  0.25041711  0.26338424  0.50621915     1.04300
C325        C  0.25106762  0.23528354  0.54183446     0.93400
C326        C  0.25363835  0.24064057  0.46907321     0.92500
C327        C  0.31042739  0.23894223  0.50553947     0.84600
C328        C  0.19126483  0.23763792  0.50492204     0.90900
O329        O  0.06319031  0.03719663  0.00110843    -0.72800
O330        O  0.06145482  0.44691776  0.00061796    -0.73800
O331        O  0.06185171  0.99226679  0.97277040    -0.62400
O332        O  0.06174841  0.99105930  0.02874873    -0.70800
O333        O  0.51475170  0.99494953  0.02804722    -0.70400
O334        O  0.51436733  0.99314038  0.97319892    -0.61700
O335        O  0.51430105  0.44854827  0.00128661    -0.74200
O336        O  0.51601371  0.03927506  0.00029174    -0.72900
Cu337      Cu  0.06369597  0.99190666  0.00077791     1.04600
Cu338      Cu  0.51334277  0.99409562  0.00068531     1.04300
C339        C  0.03996350  0.05266178  0.00068162     0.93400
C340        C  0.03769313  0.43329841  0.00110046     0.92500
C341        C  0.03783657  0.99215877  0.96420782     0.84600
C342        C  0.03781145  0.99246191  0.03730282     0.90900
O343        O  0.51634108  0.28791176  0.00315720    -0.72800
O344        O  0.51849843  0.19770227  0.00039801    -0.73800
O345        O  0.51756971  0.23986768  0.02940595    -0.62400
O346        O  0.51784965  0.24521274  0.97440206    -0.70800
O347        O  0.06523449  0.24526362  0.97447294    -0.70400
O348        O  0.06448766  0.24121452  0.02985246    -0.61700
O349        O  0.06562971  0.19761727  0.00102756    -0.74200
O350        O  0.06347179  0.28829379  0.00311566    -0.72900
Cu351      Cu  0.51604776  0.24266373  0.00185541     1.04600
Cu352      Cu  0.06632295  0.24305272  0.00215104     1.04300
C353        C  0.03947066  0.30255079  0.00311937     0.93400
C354        C  0.04223597  0.18323928  0.00046869     0.92500
C355        C  0.04085825  0.23940655  0.03856153     0.84600
C356        C  0.04147213  0.24661033  0.96574328     0.90900
O357        O  0.20354606  0.99617032  0.03217342    -0.72800
O358        O  0.20430655  0.99361332  0.97685553    -0.73800
O359        O  0.20511331  0.44985606  0.00514433    -0.62400
O360        O  0.20221977  0.04018002  0.00427812    -0.70800
O361        O  0.24926996  0.04065068  0.00500711    -0.70400
O362        O  0.25231551  0.45000228  0.00450321    -0.61700
O363        O  0.25150254  0.99571014  0.97717626    -0.74200
O364        O  0.25076527  0.99468525  0.03211361    -0.72900
Cu365      Cu  0.20222738  0.99493874  0.00456558     1.04600
Cu366      Cu  0.25253127  0.99531350  0.00469700     1.04300
C367        C  0.22724853  0.99566119  0.04097906     0.93400
C368        C  0.22809544  0.99421302  0.96818930     0.92500
C369        C  0.22902588  0.43552245  0.00489807     0.84600
C370        C  0.22528548  0.05495774  0.00492268     0.90900
O371        O  0.25146170  0.28960071  0.00570682    -0.72800
O372        O  0.24785903  0.19952341  0.00837051    -0.73800
O373        O  0.25093933  0.24178580  0.97964023    -0.62400
O374        O  0.24824872  0.24786784  0.03457318    -0.70800
O375        O  0.20105102  0.24795542  0.03343694    -0.70400
O376        O  0.20394925  0.24661155  0.97833947    -0.61700
O377        O  0.20088938  0.20186856  0.00633276    -0.74200
O378        O  0.20425440  0.29207885  0.00563772    -0.72900
Cu379      Cu  0.25119705  0.24451197  0.00712149     1.04600
Cu380      Cu  0.20096658  0.24714194  0.00590422     1.04300
C381        C  0.22833353  0.30520521  0.00552828     0.93400
C382        C  0.22392101  0.18619278  0.00745108     0.92500
C383        C  0.22799042  0.24381458  0.97013497     0.84600
C384        C  0.22412335  0.24944843  0.04278693     0.90900
N385        N  0.03006969  0.46784190  0.85451525    -0.36500
N386        N  0.00389131  0.02122157  0.86153462    -0.57100
N387        N  0.99639096  0.03061700  0.82157405    -0.36500
N388        N  0.02390456  0.47664521  0.81422701    -0.57100
C389        C  0.03723087  0.47041827  0.87244104     0.27100
C390        C  0.04627618  0.44629512  0.84740965     0.27100
C391        C  0.99333002  0.05760537  0.82837136     0.27100
C392        C  0.50158903  0.03309731  0.80342393     0.27100
C393        C  0.00568736  0.01226635  0.87904965     0.35700
C394        C  0.98817682  0.04579321  0.86158365     0.35700
C395        C  0.02948474  0.44800704  0.81494780     0.35700
C396        C  0.51307617  0.48213733  0.79737648     0.35700
C397        C  0.05832292  0.45012781  0.87674442    -0.21800
C398        C  0.06378348  0.43465340  0.86098548    -0.21800
C399        C  0.49627949  0.07740741  0.81431642    -0.21800
C400        C  0.50135820  0.06193878  0.79856701    -0.21800
C401        C  0.99058516  0.03110279  0.89034065    -0.22800
C402        C  0.97958710  0.05249643  0.87925818    -0.22800
C403        C  0.52275633  0.43529669  0.79834804    -0.22800
C404        C  0.51249747  0.45700725  0.78715334    -0.22800
C405        C  0.02385455  0.48953315  0.88510023    -0.18200
C406        C  0.04139009  0.43340087  0.83020816    -0.18200
C407        C  0.50496629  0.50993905  0.79108975    -0.18200
C408        C  0.98662678  0.06493573  0.84671962    -0.18200
H409        H  0.06796792  0.44618383  0.88998335     0.14700
H410        H  0.07809988  0.41611905  0.85980327     0.14700
H411        H  0.49473631  0.10067076  0.81524103     0.14700
H412        H  0.50453897  0.07088064  0.78508997     0.14700
H413        H  0.98886918  0.03029447  0.90507004     0.13000
H414        H  0.96791665  0.07160763  0.88378894     0.13000
H415        H  0.52516582  0.41275203  0.79466037     0.13000
H416        H  0.50529549  0.45458999  0.77318237     0.13000
H417        H  0.01219626  0.47670712  0.84798254     0.26300
H418        H  0.99229886  0.01167892  0.82863168     0.26300
N419        N  0.03668949  0.27447793  0.85655221    -0.36500
N420        N  0.02827506  0.26840843  0.81667979    -0.57100
N421        N  0.99183535  0.21996484  0.82339745    -0.36500
N422        N  0.00161378  0.22688243  0.86339610    -0.57100
C423        C  0.05271698  0.29607215  0.85016563     0.27100
C424        C  0.04277779  0.27105803  0.87457835     0.27100
C425        C  0.49722741  0.21666494  0.80523899     0.27100
C426        C  0.98489098  0.19374965  0.82990386     0.27100
C427        C  0.03682995  0.29604682  0.81745052     0.35700
C428        C  0.51779102  0.26446221  0.79959402     0.35700
C429        C  0.00662424  0.23373481  0.88101119     0.35700
C430        C  0.98269603  0.20542052  0.86333458     0.35700
C431        C  0.06939098  0.30673548  0.86424450    -0.21800
C432        C  0.06357733  0.29053707  0.87957849    -0.21800
C433        C  0.49226840  0.18852930  0.80000290    -0.21800
C434        C  0.48480968  0.17398903  0.81552153    -0.21800
C435        C  0.53242522  0.30936480  0.80061773    -0.22800
C436        C  0.52089916  0.28909326  0.78921856    -0.22800
C437        C  0.99009764  0.21690644  0.89235300    -0.22800
C438        C  0.97498743  0.19886773  0.88113019    -0.22800
C439        C  0.04818414  0.30975758  0.83312282    -0.18200
C440        C  0.02796376  0.25292087  0.88688596    -0.18200
C441        C  0.97931243  0.18666893  0.84840189    -0.18200
C442        C  0.50603386  0.23853264  0.79322685    -0.18200
H443        H  0.08319894  0.32519644  0.86370259     0.14700
H444        H  0.07231019  0.29395072  0.89309819     0.14700
H445        H  0.49445452  0.17925127  0.78648967     0.14700
H446        H  0.48000112  0.15129269  0.81611944     0.14700
H447        H  0.53706234  0.33136437  0.79688787     0.13000
H448        H  0.51472640  0.29235244  0.77510233     0.13000
H449        H  0.99006148  0.21656887  0.90713316     0.13000
H450        H  0.96157469  0.18141694  0.88555932     0.13000
H451        H  0.01954600  0.26637840  0.84943624     0.26300
H452        H  0.99139655  0.23918347  0.83070482     0.26300
N453        N  0.24907343  0.01198521  0.86112035    -0.36500
N454        N  0.24814713  0.01144519  0.82069338    -0.57100
N455        N  0.21403253  0.46208257  0.82134137    -0.36500
N456        N  0.21223192  0.46259220  0.86154606    -0.57100
C457        C  0.25810744  0.03883353  0.85728360     0.27100
C458        C  0.24077396  0.01204507  0.87886556     0.27100
C459        C  0.21118020  0.46880877  0.80344553     0.27100
C460        C  0.19543156  0.44107918  0.82503042     0.27100
C461        C  0.26647153  0.03300536  0.82369444     0.35700
C462        C  0.24883703  0.00564582  0.80260928     0.35700
C463        C  0.21886730  0.46384660  0.87951822     0.35700
C464        C  0.20433967  0.43519346  0.85826314     0.35700
C465        C  0.25649139  0.05575141  0.87295615    -0.21800
C466        C  0.24588357  0.03875999  0.88658453    -0.21800
C467        C  0.18976981  0.45222625  0.79579255    -0.21800
C468        C  0.18032092  0.43418227  0.80937491    -0.21800
C469        C  0.27905696  0.04111564  0.80740515    -0.22800
C470        C  0.26828546  0.02339337  0.79406659    -0.22800
C471        C  0.21370729  0.43768101  0.88786077    -0.22800
C472        C  0.20513609  0.41928689  0.87430126    -0.22800
C473        C  0.26761248  0.04888172  0.84008405    -0.18200
C474        C  0.22960707  0.98833392  0.88846151    -0.18200
C475        C  0.19652674  0.42426545  0.84097601    -0.18200
C476        C  0.22961344  0.98699526  0.79362776    -0.18200
H477        H  0.26234558  0.07811843  0.87447324     0.14700
H478        H  0.24200917  0.04552684  0.90052720     0.14700
H479        H  0.18290089  0.45189484  0.78166902     0.14700
H480        H  0.16503248  0.41708888  0.80778313     0.14700
H481        H  0.29366148  0.05866213  0.80529236     0.13000
H482        H  0.27311546  0.02449798  0.77963774     0.13000
H483        H  0.21674342  0.43212442  0.90209093     0.13000
H484        H  0.19999820  0.39680510  0.87610645     0.13000
H485        H  0.25034446  0.99421084  0.85246414     0.26300
H486        H  0.23100232  0.46724176  0.82986006     0.26300
N487        N  0.22237011  0.26289958  0.86270303    -0.36500
N488        N  0.25680156  0.21061267  0.86435376    -0.57100
N489        N  0.25779024  0.21019291  0.82404477    -0.36500
N490        N  0.22508004  0.26179809  0.82250307    -0.57100
C491        C  0.22950680  0.26211553  0.88062638     0.27100
C492        C  0.21660807  0.29078747  0.85845405     0.27100
C493        C  0.27581899  0.18805382  0.82798565     0.27100
C494        C  0.26012265  0.21568249  0.80595079     0.27100
C495        C  0.24780668  0.21181024  0.88192389     0.35700
C496        C  0.26544711  0.18304403  0.86128167     0.35700
C497        C  0.20728377  0.28449293  0.82519436     0.35700
C498        C  0.22421458  0.25564221  0.80452156     0.35700
C499        C  0.22740968  0.28961446  0.88800136    -0.21800
C500        C  0.21971334  0.30780878  0.87394098    -0.21800
C501        C  0.28998390  0.17924551  0.81222682    -0.21800
C502        C  0.28028570  0.19691038  0.79832754    -0.21800
C503        C  0.25198760  0.18531250  0.89029980    -0.22800
C504        C  0.26288899  0.16695366  0.87715056    -0.22800
C505        C  0.19471873  0.29287564  0.80880759    -0.22800
C506        C  0.20539314  0.27441541  0.79565608    -0.22800
C507        C  0.23688521  0.23697167  0.89056054    -0.18200
C508        C  0.20736223  0.30117345  0.84120909    -0.18200
C509        C  0.24250985  0.23524711  0.79595578    -0.18200
C510        C  0.27469204  0.17183639  0.84421932    -0.18200
H511        H  0.23137879  0.29599319  0.90199011     0.14700
H512        H  0.21634918  0.33091662  0.87509215     0.14700
H513        H  0.30464207  0.16100513  0.81074556     0.14700
H514        H  0.28629607  0.19513035  0.78409333     0.14700
H515        H  0.24716877  0.17970256  0.90429026     0.13000
H516        H  0.26814991  0.14429066  0.87900660     0.13000
H517        H  0.18052770  0.31126896  0.80647833     0.13000
H518        H  0.20082098  0.27549864  0.78117372     0.13000
H519        H  0.21910186  0.24512170  0.85431550     0.26300
H520        H  0.24144478  0.21721041  0.83263154     0.26300
N521        N  0.00621995  0.56565556  0.64560661    -0.36500
N522        N  0.00870844  0.55619672  0.68625781    -0.57100
N523        N  0.45994133  0.52243303  0.68527339    -0.36500
N524        N  0.45739890  0.52858856  0.64489538    -0.57100
C525        C  0.03402802  0.57087678  0.64936341     0.27100
C526        C  0.00453723  0.55988950  0.62744628     0.27100
C527        C  0.46893555  0.51630354  0.70250871     0.27100
C528        C  0.44012897  0.50297093  0.68067738     0.27100
C529        C  0.03065525  0.57393155  0.68332807     0.35700
C530        C  0.00507786  0.55430614  0.70450535     0.35700
C531        C  0.45669471  0.53790538  0.62736162     0.35700
C532        C  0.43149911  0.51716484  0.64816852     0.35700
C533        C  0.04971714  0.57030710  0.63325919    -0.21800
C534        C  0.03101544  0.56377821  0.61940064    -0.21800
C535        C  0.45457626  0.49238275  0.70885033    -0.21800
C536        C  0.43595055  0.48433736  0.69518388    -0.21800
C537        C  0.04096870  0.58384496  0.69992700    -0.22800
C538        C  0.02418157  0.57211362  0.71334448    -0.22800
C539        C  0.43067599  0.53162964  0.61933951    -0.22800
C540        C  0.41454532  0.51881220  0.63258421    -0.22800
C541        C  0.04640556  0.57346951  0.66698520    -0.18200
C542        C  0.48016759  0.54976555  0.61807118    -0.18200
C543        C  0.42296369  0.50448935  0.66482136    -0.18200
C544        C  0.48834034  0.53300115  0.71292895    -0.18200
H545        H  0.07253156  0.57339957  0.63175066     0.14700
H546        H  0.03664969  0.56065514  0.60519222     0.14700
H547        H  0.45655281  0.48238463  0.72215108     0.14700
H548        H  0.42071454  0.46706681  0.69593367     0.14700
H549        H  0.05980413  0.59659811  0.70221631     0.13000
H550        H  0.02741021  0.57437968  0.72791300     0.13000
H551        H  0.42404873  0.53587562  0.60541001     0.13000
H552        H  0.39295417  0.51110599  0.63083864     0.13000
H553        H  0.98942745  0.56590614  0.65497156     0.26300
H554        H  0.46346405  0.54121216  0.67788769     0.26300
N555        N  0.02150143  0.24109749  0.64557252    -0.36500
N556        N  0.47157853  0.20652883  0.64654451    -0.57100
N557        N  0.47472005  0.20830847  0.68710254    -0.36500
N558        N  0.02326798  0.24148740  0.68621225    -0.57100
C559        C  0.01993054  0.23219721  0.62797229     0.27100
C560        C  0.04927428  0.24659728  0.64909940     0.27100
C561        C  0.45439798  0.18879769  0.68393696     0.27100
C562        C  0.48209842  0.20649233  0.70497905     0.27100
C563        C  0.47058460  0.21462942  0.62878918     0.35700
C564        C  0.44468190  0.19925635  0.65109337     0.35700
C565        C  0.04421668  0.25967150  0.68196226     0.35700
C566        C  0.01823272  0.24436942  0.70426501     0.35700
C567        C  0.04681233  0.23313509  0.62001706    -0.21800
C568        C  0.06546783  0.24161317  0.63346857    -0.21800
C569        C  0.44882780  0.17390776  0.69993074    -0.21800
C570        C  0.46664780  0.18486056  0.71321492    -0.21800
C571        C  0.44329961  0.21129412  0.62177646    -0.22800
C572        C  0.42669593  0.20206263  0.63601975    -0.22800
C573        C  0.05275611  0.27447898  0.69747032    -0.22800
C574        C  0.03593045  0.26505612  0.71161850    -0.22800
C575        C  0.49449860  0.22420396  0.61891967    -0.18200
C576        C  0.06025061  0.25705224  0.66581925    -0.18200
C577        C  0.50009770  0.22608219  0.71415135    -0.18200
C578        C  0.43614530  0.18997840  0.66863439    -0.18200
H579        H  0.05257568  0.22786275  0.60608807     0.14700
H580        H  0.08829939  0.24435091  0.63179431     0.14700
H581        H  0.43234374  0.15813525  0.70202450     0.14700
H582        H  0.46694018  0.17882715  0.72748856     0.14700
H583        H  0.43600622  0.21563841  0.60799528     0.13000
H584        H  0.40400690  0.19775975  0.63529868     0.13000
H585        H  0.07034362  0.28927577  0.69860540     0.13000
H586        H  0.03765307  0.27147306  0.72578981     0.13000
H587        H  0.00429240  0.24538832  0.65426117     0.26300
H588        H  0.47851907  0.22543290  0.67834803     0.26300
N589        N  0.20351380  0.01960755  0.64759777    -0.36500
N590        N  0.20114319  0.01032293  0.68739785    -0.57100
N591        N  0.25875288  0.98708778  0.68707034    -0.36500
N592        N  0.26141844  0.99899961  0.64730284    -0.57100
C593        C  0.17909568  0.03430991  0.65166261     0.27100
C594        C  0.21036226  0.02602020  0.63011143     0.27100
C595        C  0.25444868  0.98974612  0.70530972     0.27100
C596        C  0.28740292  0.98662262  0.68439231     0.27100
C597        C  0.17367495  0.01855055  0.68425372     0.35700
C598        C  0.20212279  0.99997775  0.70466396     0.35700
C599        C  0.25776584  0.00086583  0.62899881     0.35700
C600        C  0.28796521  0.98787056  0.65011015     0.35700
C601        C  0.17005622  0.04995217  0.63646722    -0.21800
C602        C  0.18976960  0.04467313  0.62287272    -0.21800
C603        C  0.28057640  0.98953572  0.71432722    -0.21800
C604        C  0.30134687  0.98745570  0.70116727    -0.21800
C605        C  0.15718661  0.01358941  0.69966422    -0.22800
C606        C  0.17516151  0.00158083  0.71251700    -0.22800
C607        C  0.28202346  0.99054159  0.62009601    -0.22800
C608        C  0.30133866  0.98276039  0.63346360    -0.22800
C609        C  0.16344660  0.03208876  0.66812977    -0.18200
C610        C  0.23410782  0.01459432  0.62030948    -0.18200
C611        C  0.30165311  0.98615264  0.66732471    -0.18200
C612        C  0.22760920  0.99250138  0.71413103    -0.18200
H613        H  0.15093766  0.06339176  0.63515149     0.14700
H614        H  0.18891807  0.05345410  0.60919050     0.14700
H615        H  0.28436194  0.99134495  0.72886893     0.14700
H616        H  0.32421336  0.98717496  0.70370267     0.14700
H617        H  0.13461933  0.01849461  0.70159245     0.13000
H618        H  0.16926725  0.99565730  0.72628151     0.13000
H619        H  0.28592682  0.98998688  0.60553135     0.13000
H620        H  0.32301645  0.97493423  0.63113419     0.13000
H621        H  0.21282366  0.00351812  0.65556858     0.26300
H622        H  0.24319330  0.98420233  0.67712366     0.26300
N623        N  0.22285490  0.24163516  0.64846528    -0.36500
N624        N  0.22223314  0.24448891  0.68884411    -0.57100
N625        N  0.27602805  0.21744308  0.69000101    -0.36500
N626        N  0.27717595  0.21312891  0.64949489    -0.57100
C627        C  0.19459450  0.24455446  0.65200158     0.27100
C628        C  0.22542738  0.23282904  0.63088519     0.27100
C629        C  0.26885201  0.21550084  0.70787133     0.27100
C630        C  0.29770781  0.19849272  0.68699302     0.27100
C631        C  0.19788936  0.25896741  0.68480148     0.35700
C632        C  0.22730645  0.24888189  0.70676054     0.35700
C633        C  0.27677163  0.22051184  0.63161489     0.35700
C634        C  0.30475724  0.20707483  0.65369709     0.35700
C635        C  0.17903621  0.23781521  0.63639776    -0.21800
C636        C  0.19859096  0.23083572  0.62297389    -0.21800
C637        C  0.28622755  0.19493417  0.71633110    -0.21800
C638        C  0.30464982  0.18430369  0.70312647    -0.21800
C639        C  0.18736946  0.27301599  0.70021727    -0.22800
C640        C  0.20630420  0.26688731  0.71415588    -0.22800
C641        C  0.30400509  0.21836423  0.62426612    -0.22800
C642        C  0.32186011  0.21003736  0.63831800    -0.22800
C643        C  0.18250780  0.25481835  0.66854130    -0.18200
C644        C  0.25163430  0.22763856  0.62180920    -0.18200
C645        C  0.31457212  0.19799298  0.67107053    -0.18200
C646        C  0.24817202  0.23321926  0.71675289    -0.18200
H647        H  0.15597418  0.23842000  0.63472218     0.14700
H648        H  0.19362361  0.22468149  0.60907576     0.14700
H649        H  0.28618656  0.18886401  0.73059959     0.14700
H650        H  0.32191957  0.16872930  0.70525831     0.14700
H651        H  0.16744711  0.28522190  0.70145036     0.13000
H652        H  0.20393304  0.27340613  0.72828377     0.13000
H653        H  0.31030825  0.22245146  0.61030340     0.13000
H654        H  0.34478972  0.20642831  0.63728509     0.13000
H655        H  0.23943249  0.24803530  0.65699255     0.26300
H656        H  0.27000907  0.23380416  0.68099603     0.26300
C657        C  0.38897034  0.16550111  0.66678186    -0.01700
C658        C  0.40521812  0.18921534  0.67230286     0.07900
C659        C  0.39172788  0.21442665  0.67923723    -0.01900
C660        C  0.36189763  0.21659017  0.67957102    -0.01900
C661        C  0.34557043  0.19326525  0.67343487     0.08100
C662        C  0.35895337  0.16742233  0.66754192    -0.02000
Br663      Br  0.33606718  0.13567721  0.65945831    -0.00600
Br664      Br  0.40792768  0.13166005  0.65685762    -0.00700
Br665      Br  0.34348871  0.25277746  0.68653036    -0.00600
Br666      Br  0.41384020  0.24736140  0.68656414    -0.00600
C667        C  0.10607938  0.23393875  0.67522962    -0.01700
C668        C  0.09154913  0.25819159  0.66783435     0.07900
C669        C  0.10674393  0.28230797  0.66186437    -0.01900
C670        C  0.13674105  0.28188954  0.66292197    -0.01900
C671        C  0.15117091  0.25718953  0.66960271     0.08100
C672        C  0.13593666  0.23345263  0.67614297    -0.02000
Br673      Br  0.15600446  0.19979570  0.68569459    -0.00600
Br674      Br  0.08519128  0.20069874  0.68328618    -0.00700
Br675      Br  0.15833133  0.31469846  0.65516308    -0.00600
Br676      Br  0.08650627  0.31521468  0.65178755    -0.00600
C677        C  0.37357250  0.02118855  0.67168439    -0.01700
C678        C  0.39229929  0.49808054  0.66690798     0.07900
C679        C  0.38155660  0.47055780  0.66301963    -0.01900
C680        C  0.35191042  0.46597008  0.66415181    -0.01900
C681        C  0.33310141  0.98964139  0.66761437     0.08100
C682        C  0.34398877  0.01715842  0.67151180    -0.02000
Br683      Br  0.31839693  0.04954665  0.67654483    -0.00600
Br684      Br  0.38856314  0.05852085  0.67802037    -0.00700
Br685      Br  0.33692948  0.42777688  0.66116915    -0.00600
Br686      Br  0.40723211  0.43981654  0.65541620    -0.00600
C687        C  0.09916677  0.08336366  0.67047889    -0.01700
C688        C  0.07666222  0.56365446  0.66859826     0.07900
C689        C  0.08273636  0.53377887  0.66692829    -0.01900
C690        C  0.11112183  0.52390752  0.66555440    -0.01900
C691        C  0.13359390  0.04335702  0.66819604     0.08100
C692        C  0.12766766  0.07297275  0.67104350    -0.02000
Br693      Br  0.15863758  0.09909857  0.67537039    -0.00600
Br694      Br  0.09091788  0.12414224  0.67162240    -0.00700
Br695      Br  0.11933530  0.48405311  0.65940593    -0.00600
Br696      Br  0.05217929  0.50613603  0.66656498    -0.00600
C697        C  0.22425034  0.21848722  0.76554466    -0.01700
C698        C  0.24387906  0.23486367  0.77563397     0.07900
C699        C  0.26464532  0.25106553  0.76645596    -0.01900
C700        C  0.26649443  0.25000253  0.74726271    -0.01900
C701        C  0.24685785  0.23359717  0.73712446     0.08100
C702        C  0.22547754  0.21813873  0.74633591    -0.02000
Br703      Br  0.19776637  0.19652129  0.73264566    -0.00600
Br704      Br  0.19554368  0.19674839  0.77816590    -0.00700
Br705      Br  0.29563786  0.27136348  0.73481177    -0.00600
Br706      Br  0.28999816  0.27526240  0.78027377    -0.00600
C707        C  0.22243249  0.37922457  0.83229706    -0.01700
C708        C  0.19688915  0.39265587  0.83859088     0.07900
C709        C  0.17379214  0.37593577  0.84445318    -0.01900
C710        C  0.17680383  0.34574326  0.84492391    -0.01900
C711        C  0.20257359  0.33251344  0.83909316     0.08100
C712        C  0.22505345  0.34916051  0.83223818    -0.02000
Br713      Br  0.26022185  0.33087551  0.82371851    -0.00600
Br714      Br  0.25505316  0.40185698  0.82529681    -0.00700
Br715      Br  0.14654838  0.32236319  0.85435118    -0.00600
Br716      Br  0.13902706  0.39452573  0.85288393    -0.00600
C717        C  0.24676592  0.09763527  0.83562094    -0.01700
C718        C  0.27147486  0.08029528  0.83845336     0.07900
C719        C  0.29809128  0.09294428  0.84208407    -0.01900
C720        C  0.29959262  0.12309497  0.84401964    -0.01900
C721        C  0.27458984  0.14024137  0.84180938     0.08100
C722        C  0.24836403  0.12755234  0.83715185    -0.02000
Br723      Br  0.21413649  0.15114348  0.83354288    -0.00600
Br724      Br  0.21015759  0.08021244  0.83078216    -0.00700
Br725      Br  0.33527976  0.14089134  0.85022106    -0.00600
Br726      Br  0.33197778  0.06887109  0.84461237    -0.00600
C727        C  0.21871992  0.01323840  0.76422847    -0.01700
C728        C  0.22781205  0.98769454  0.77318893     0.07900
C729        C  0.23580069  0.46345269  0.76262638    -0.01900
C730        C  0.23357198  0.46435005  0.74342473    -0.01900
C731        C  0.22686863  0.99050328  0.73454247     0.08100
C732        C  0.22067809  0.01532586  0.74512702    -0.02000
Br733      Br  0.21732644  0.05276658  0.73370588    -0.00600
Br734      Br  0.20249468  0.04513415  0.77798844    -0.00700
Br735      Br  0.23979017  0.42959880  0.72928384    -0.00600
Br736      Br  0.25105853  0.42910603  0.77427276    -0.00600
C737        C  0.47842909  0.24131765  0.76364161    -0.01700
C738        C  0.50378241  0.23362243  0.77307015     0.07900
C739        C  0.02702297  0.22112899  0.76339189     0.00500
C740        C  0.02495674  0.21670369  0.74437176    -0.01900
C741        C  0.50061152  0.22705396  0.73462735     0.08100
C742        C  0.47731229  0.23928930  0.74443508    -0.02000
Br743      Br  0.44433380  0.25458473  0.73162408    -0.00600
Br744      Br  0.44515605  0.25431974  0.77715255    -0.00700
Br745      Br  0.05494719  0.19567242  0.73170584    -0.00600
Br746      Br  0.06168373  0.21023173  0.77623069    -0.00600
C747        C  0.06778458  0.38714252  0.82270395    -0.01700
C748        C  0.04346414  0.40165437  0.82977453     0.07900
C749        C  0.52130799  0.38627320  0.83797419    -0.01900
C750        C  0.52400952  0.35642659  0.84002118    -0.01900
C751        C  0.04830306  0.34161461  0.83300269     0.08100
C752        C  0.07017183  0.35693664  0.82424196    -0.02000
Br753      Br  0.10279946  0.33650668  0.81411584    -0.00600
Br754      Br  0.09712705  0.40870883  0.81064076    -0.00700
Br755      Br  0.49390420  0.33585075  0.85226407    -0.00600
Br756      Br  0.48659621  0.40609450  0.84588897    -0.00600
C757        C  0.00510046  0.14156431  0.85660731    -0.01700
C758        C  0.97874892  0.15566404  0.85266501     0.07900
C759        C  0.45382267  0.13974533  0.84955951    -0.01900
C760        C  0.45588160  0.10955524  0.84854108    -0.01900
C761        C  0.98271578  0.09573394  0.85106913     0.08100
C762        C  0.00693006  0.11151937  0.85611639    -0.02000
Br763      Br  0.04322639  0.09211509  0.86089503    -0.00600
Br764      Br  0.03961038  0.16328677  0.86050048    -0.00700
Br765      Br  0.42273722  0.08715498  0.84266673    -0.00600
Br766      Br  0.41773974  0.15953640  0.84539078    -0.00600
C767        C  0.46998895  0.03093914  0.74543385    -0.01700
C768        C  0.49256443  0.52664630  0.73298353     0.07900
C769        C  0.01935126  0.51630901  0.73968815    -0.01900
C770        C  0.02377815  0.51248123  0.75863633    -0.01900
C771        C  0.50064957  0.51526802  0.77094866     0.08100
C772        C  0.47357825  0.02380531  0.76406840    -0.02000
Br773      Br  0.44087425  0.02520557  0.78016890    -0.00600
Br774      Br  0.43422751  0.04821766  0.73727378    -0.00700
Br775      Br  0.06210428  0.50545191  0.76778220    -0.00600
Br776      Br  0.05002285  0.50644032  0.72296224    -0.00600
C777        C  0.20604920  0.23339272  0.93879346    -0.01700
C778        C  0.22956248  0.24278147  0.94959602     0.07900
C779        C  0.25505819  0.25097262  0.94047084    -0.01900
C780        C  0.25778968  0.24745005  0.92141786    -0.01900
C781        C  0.23457019  0.23793105  0.91092035     0.08100
C782        C  0.20852024  0.23161467  0.91957283    -0.02000
Br783      Br  0.17601998  0.22090757  0.90480061    -0.00600
Br784      Br  0.17006044  0.22254276  0.94963657    -0.00700
Br785      Br  0.29321101  0.25672053  0.90932436    -0.00600
Br786      Br  0.28565435  0.27013327  0.95324303    -0.00600
C787        C  0.21054448  0.35512954  0.99372491    -0.01700
C788        C  0.22926283  0.33860102  0.00515321     0.07900
C789        C  0.24851984  0.35448321  0.01626686    -0.01900
C790        C  0.24877138  0.38550985  0.01606016    -0.01900
C791        C  0.22951358  0.40204327  0.00491311     0.08100
C792        C  0.21040567  0.38608042  0.99377307    -0.02000
Br793      Br  0.18449242  0.40654202  0.97756215    -0.00600
Br794      Br  0.18613790  0.33531643  0.97669454    -0.00700
Br795      Br  0.27475635  0.40531435  0.03209515    -0.00600
Br796      Br  0.27386302  0.33383277  0.03276750    -0.00600
C797        C  0.20172010  0.10564621  0.99773434    -0.01700
C798        C  0.22426851  0.08867567  0.00585136     0.07900
C799        C  0.24556626  0.10456518  0.01537166    -0.01900
C800        C  0.24455801  0.13552233  0.01656932    -0.01900
C801        C  0.22314486  0.15253255  0.00747215     0.08100
C802        C  0.20138480  0.13673295  0.99830250    -0.02000
Br803      Br  0.17073982  0.15736064  0.98584214    -0.00600
Br804      Br  0.17096383  0.08674416  0.98505798    -0.00700
Br805      Br  0.27146053  0.15428939  0.03254715    -0.00600
Br806      Br  0.27617032  0.08422579  0.02793512    -0.00600
C807        C  0.20641358  0.50432930  0.91795330    -0.01700
C808        C  0.22901021  0.98950437  0.90886552     0.07900
C809        C  0.25142704  0.97668807  0.91906056    -0.01900
C810        C  0.25133484  0.97824351  0.93832098    -0.01900
C811        C  0.22862473  0.99289608  0.94768421     0.08100
C812        C  0.20623657  0.50621595  0.93719717    -0.02000
Br813      Br  0.17612704  0.52886414  0.94869387    -0.00600
Br814      Br  0.17619513  0.52267978  0.90378371    -0.00700
Br815      Br  0.28236813  0.95920175  0.95137813    -0.00600
Br816      Br  0.28236935  0.95691016  0.90635435    -0.00600
C817        C  0.52206696  0.27103784  0.93752877    -0.01700
C818        C  0.04091023  0.25033686  0.94548853     0.07900
C819        C  0.05790953  0.23255429  0.93390076    -0.01900
C820        C  0.05460280  0.23429532  0.91471933    -0.01900
C821        C  0.03456783  0.25395240  0.90693624     0.08100
C822        C  0.51856862  0.27244287  0.91841054    -0.02000
Br823      Br  0.49046011  0.29864151  0.90792034    -0.00600
Br824      Br  0.50159360  0.29851912  0.95278057    -0.00700
Br825      Br  0.07630221  0.20856063  0.89903194    -0.00600
Br826      Br  0.08452132  0.20450934  0.94413559    -0.00600
C827        C  0.05625951  0.38281755  0.99014642    -0.01700
C828        C  0.03756436  0.39973275  0.00141250     0.07900
C829        C  0.51913455  0.38401742  0.01302374    -0.01900
C830        C  0.51918743  0.35297551  0.01330993    -0.01900
C831        C  0.03861055  0.33610626  0.00258157     0.08100
C832        C  0.05700976  0.35181813  0.99087307    -0.02000
Br833      Br  0.08227747  0.33080769  0.97453853    -0.00600
Br834      Br  0.07987236  0.40201244  0.97248675    -0.00700
Br835      Br  0.49265329  0.33371118  0.02913679    -0.00600
Br836      Br  0.49473264  0.40494628  0.02980944    -0.00600
C837        C  0.52358919  0.13405003  0.98862679    -0.01700
C838        C  0.04241462  0.14971393  0.00011648     0.07900
C839        C  0.06070571  0.13283867  0.01166652    -0.01900
C840        C  0.05996518  0.10183973  0.01185994    -0.01900
C841        C  0.04082309  0.08617899  0.00052775     0.08100
C842        C  0.52261272  0.10307654  0.98894767    -0.02000
Br843      Br  0.49671622  0.08379166  0.97260483    -0.00600
Br844      Br  0.49996268  0.15495324  0.97127640    -0.00700
Br845      Br  0.08424458  0.08100042  0.02886873    -0.00600
Br846      Br  0.08605034  0.15216999  0.02828810    -0.00600
C847        C  0.51740655  0.46698109  0.91627668    -0.01700
C848        C  0.03063920  0.48757490  0.90517457     0.07900
C849        C  0.04818412  0.00843068  0.91335268    -0.01900
C850        C  0.05069255  0.01006266  0.93258617    -0.01900
C851        C  0.03658722  0.48997810  0.94389711     0.08100
C852        C  0.52041747  0.46810486  0.93549278    -0.02000
Br853      Br  0.50227492  0.43929307  0.95032837    -0.00600
Br854      Br  0.49449312  0.43750067  0.90515112    -0.00700
Br855      Br  0.07117927  0.04151256  0.94345840    -0.00600
Br856      Br  0.06864427  0.03496816  0.89810077    -0.00600
C857        C  0.25901901  0.25742214  0.57350178    -0.01700
C858        C  0.25176705  0.23319704  0.56246514     0.07900
C859        C  0.24577676  0.20670309  0.57151805    -0.01900
C860        C  0.24760677  0.20464072  0.59073907    -0.01900
C861        C  0.25248144  0.22928334  0.60140705     0.08100
C862        C  0.25800374  0.25565083  0.59276559    -0.02000
Br863      Br  0.26474459  0.28934405  0.60766284    -0.00600
Br864      Br  0.27269838  0.29288388  0.56304004    -0.00700
Br865      Br  0.24393272  0.16777411  0.60272442    -0.00600
Br866      Br  0.23355595  0.17273705  0.55844996    -0.00600
C867        C  0.24578691  0.04584972  0.57261136    -0.01700
C868        C  0.23418800  0.02405654  0.56117305     0.07900
C869        C  0.22350940  0.49876770  0.56962476    -0.01900
C870        C  0.22300747  0.49626791  0.58883982    -0.01900
C871        C  0.23447351  0.01791587  0.59995822     0.08100
C872        C  0.24622098  0.04248308  0.59181626    -0.02000
Br873      Br  0.26313554  0.07142192  0.60726809    -0.00600
Br874      Br  0.26286304  0.07993923  0.56247778    -0.00700
Br875      Br  0.20604051  0.46314456  0.60028426    -0.00600
Br876      Br  0.20920572  0.46678552  0.55554737    -0.00600
C877        C  0.38979014  0.25688244  0.49240379    -0.01700
C878        C  0.40671533  0.23987173  0.50464698     0.07900
C879        C  0.39134814  0.22262414  0.51725676    -0.01900
C880        C  0.36052742  0.22228958  0.51750085    -0.01900
C881        C  0.34365119  0.23933612  0.50526079     0.08100
C882        C  0.35897969  0.25649198  0.49261949    -0.02000
Br883      Br  0.33770554  0.27795151  0.47438478    -0.00600
Br884      Br  0.40901605  0.27984237  0.47442980    -0.00700
Br885      Br  0.34118961  0.19894642  0.53527076    -0.00600
Br886      Br  0.41253373  0.20039326  0.53514888    -0.00600
C887        C  0.14056781  0.26335364  0.50073429    -0.01700
C888        C  0.15734370  0.23788314  0.50480520     0.07900
C889        C  0.14086283  0.21295635  0.50903760    -0.01900
C890        C  0.10983450  0.21350152  0.50908309    -0.01900
C891        C  0.09317954  0.23857622  0.50409829     0.08100
C892        C  0.10962049  0.26349700  0.50000292    -0.02000
Br893      Br  0.09015319  0.29882835  0.49268835    -0.00600
Br894      Br  0.15936560  0.29939987  0.49598188    -0.00700
Br895      Br  0.09044726  0.17960946  0.51761924    -0.00600
Br896      Br  0.16031343  0.17735669  0.51585501    -0.00600
C897        C  0.50908973  0.20644978  0.56890003    -0.01700
C898        C  0.49732530  0.23109700  0.55988146     0.07900
C899        C  0.98333462  0.25284849  0.57060681    -0.01900
C900        C  0.98153690  0.24996123  0.58975868    -0.01900
C901        C  0.49346790  0.22553439  0.59851193     0.08100
C902        C  0.50643078  0.20344432  0.58799355    -0.02000
Br903      Br  0.52101329  0.16907477  0.60001353    -0.00600
Br904      Br  0.53140077  0.17760743  0.55580197    -0.00700
Br905      Br  0.96242976  0.27955202  0.60415754    -0.00600
Br906      Br  0.96600436  0.28695051  0.55961184    -0.00600
C907        C  0.37352883  0.01332243  0.51187231    -0.01700
C908        C  0.38914515  0.53491723  0.50254615     0.07900
C909        C  0.37201841  0.55743464  0.49442359    -0.01900
C910        C  0.34115286  0.55810369  0.49556131    -0.01900
C911        C  0.32555243  0.53581374  0.50426324     0.08100
C912        C  0.34268369  0.01383099  0.51275102    -0.02000
Br913      Br  0.32392199  0.98536399  0.52751763    -0.00600
Br914      Br  0.39399420  0.98292420  0.52474434    -0.00700
Br915      Br  0.32038334  0.59028632  0.48492669    -0.00600
Br916      Br  0.39026058  0.58738812  0.48063644    -0.00600
C917        C  0.09208347  0.04918891  0.49102024    -0.01700
C918        C  0.07579470  0.52995377  0.50202792     0.07900
C919        C  0.09240388  0.51032622  0.51299886    -0.01900
C920        C  0.12332831  0.51024208  0.51313369    -0.01900
C921        C  0.13940041  0.53027461  0.50278256     0.08100
C922        C  0.12298706  0.04936480  0.49145457    -0.02000
Br923      Br  0.14296639  0.07450505  0.47503185    -0.00600
Br924      Br  0.07222468  0.07433443  0.47400616    -0.00700
Br925      Br  0.14375752  0.48256792  0.52813208    -0.00600
Br926      Br  0.07310248  0.48396822  0.52894564    -0.00600
C927        C  0.99077750  0.51897349  0.57008232    -0.01700
C928        C  0.48193488  0.54247432  0.55863558     0.07900
C929        C  0.47276360  0.06887329  0.56728868    -0.01900
C930        C  0.47202547  0.07111056  0.58659626    -0.01900
C931        C  0.48086433  0.54758224  0.59760546     0.08100
C932        C  0.99031048  0.52173171  0.58930222    -0.02000
Br933      Br  0.00323439  0.49004006  0.60461075    -0.00600
Br934      Br  0.00492292  0.48264380  0.56020468    -0.00700
Br935      Br  0.45811076  0.10603471  0.59831737    -0.00600
Br936      Br  0.46023927  0.10222070  0.55336018    -0.00600
C937        C  0.28250675  0.22938018  0.42057569    -0.01700
C938        C  0.26392564  0.24760975  0.41044880     0.07900
C939        C  0.24264640  0.26400971  0.41961090    -0.01900
C940        C  0.23913072  0.26148003  0.43864452    -0.01900
C941        C  0.25701276  0.24252311  0.44883936     0.08100
C942        C  0.27877737  0.22637755  0.43964708    -0.02000
Br943      Br  0.30377754  0.20014933  0.45295473    -0.00600
Br944      Br  0.31312594  0.20875762  0.40819145    -0.00700
Br945      Br  0.20805671  0.28238391  0.45038936    -0.00600
Br946      Br  0.21796190  0.28984499  0.40582287    -0.00600
C947        C  0.21342636  0.52040806  0.43771342    -0.01700
C948        C  0.23004654  0.54028174  0.44770451     0.07900
C949        C  0.24614589  0.56079623  0.43796668    -0.01900
C950        C  0.24798423  0.55936208  0.41873363    -0.01900
C951        C  0.23224350  0.53883942  0.40891699     0.08100
C952        C  0.21471100  0.51960639  0.41846869    -0.02000
Br953      Br  0.19307258  0.49146586  0.40513396    -0.00600
Br954      Br  0.18682387  0.49574264  0.45016334    -0.00700
Br955      Br  0.27304385  0.58477899  0.40570824    -0.00600
Br956      Br  0.26559484  0.09131299  0.45052302    -0.00600
C957        C  0.01452615  0.26901909  0.43773688    -0.01700
C958        C  0.49660098  0.24943975  0.44686753     0.07900
C959        C  0.47709106  0.23306593  0.43643345    -0.01900
C960        C  0.47619896  0.23567148  0.41722430    -0.01900
C961        C  0.49562439  0.25356098  0.40815727     0.08100
C962        C  0.01451638  0.27043689  0.41847612    -0.02000
Br963      Br  0.04073657  0.29534329  0.40593690    -0.00600
Br964      Br  0.04014081  0.29338802  0.45121883    -0.00700
Br965      Br  0.44844277  0.21463107  0.40316481    -0.00600
Br966      Br  0.45076031  0.20752189  0.44828664    -0.00600
C967        C  0.39365941  0.30620642  0.33362102    -0.01700
C968        C  0.40810588  0.27948226  0.33571509     0.07900
C969        C  0.39285302  0.25403769  0.33875689    -0.01900
C970        C  0.36304352  0.25536781  0.33996235    -0.01900
C971        C  0.34852089  0.28212911  0.33804606     0.08100
C972        C  0.36365242  0.30752970  0.33475964    -0.02000
Br973      Br  0.34317560  0.34375848  0.33200831    -0.00600
Br974      Br  0.41514245  0.34071520  0.32963051    -0.00700
Br975      Br  0.34203694  0.22042678  0.34426127    -0.00600
Br976      Br  0.41288389  0.21732913  0.34144745    -0.00600
C977        C  0.11616546  0.19194053  0.34722296    -0.01700
C978        C  0.10236398  0.21875327  0.35006648     0.07900
C979        C  0.11787521  0.24311781  0.35528469    -0.01900
C980        C  0.14769319  0.24126157  0.35604777    -0.01900
C981        C  0.16176243  0.21496111  0.35171786     0.08100
C982        C  0.14613707  0.18990641  0.34834765    -0.02000
Br983      Br  0.16612873  0.15376089  0.34434222    -0.00600
Br984      Br  0.09380052  0.15910502  0.34058341    -0.00700
Br985      Br  0.16937507  0.27554739  0.36105204    -0.00600
Br986      Br  0.09837694  0.27970218  0.35957483    -0.00600
C987        C  0.00236482  0.49915218  0.43757713    -0.01700
C988        C  0.48282942  0.51955391  0.44521239     0.07900
C989        C  0.46330182  0.03421211  0.43344890    -0.01900
C990        C  0.46318553  0.02833010  0.41447477    -0.01900
C991        C  0.48191062  0.00712226  0.40707515     0.08100
C992        C  0.00134617  0.49243340  0.41876673    -0.02000
Br993      Br  0.02707832  0.46339726  0.40875872    -0.00600
Br994      Br  0.03215925  0.48178339  0.45252583    -0.00700
Br995      Br  0.43810882  0.05007466  0.39837595    -0.00600
Br996      Br  0.43553133  0.06131027  0.44322776    -0.00600
C997        C  0.35207273  0.01443436  0.34815563    -0.01700
C998        C  0.33178257  0.49295454  0.34470049     0.07900
C999        C  0.34056465  0.46513795  0.33901568    -0.01900
C1000       C  0.36983926  0.45869052  0.33701147    -0.01900
C1001       C  0.39000972  0.98050197  0.33986572     0.08100
C1002       C  0.38101004  0.00862208  0.34484151    -0.02000
Br1003     Br  0.40808016  0.03965932  0.34584414    -0.00600
Br1004     Br  0.33980040  0.05223149  0.35661835    -0.00700
Br1005     Br  0.38264826  0.42056206  0.32991343    -0.00600
Br1006     Br  0.31237436  0.43657866  0.33330249    -0.00600
C1007       C  0.11723637  0.06818797  0.33296502    -0.01700
C1008       C  0.13830878  0.55109566  0.34179359     0.07900
C1009       C  0.13125558  0.52497896  0.35046358    -0.01900
C1010       C  0.10282281  0.51649727  0.35104434    -0.01900
C1011       C  0.08196872  0.03296788  0.34141881     0.08100
C1012       C  0.08886781  0.05892647  0.33273005    -0.02000
Br1013     Br  0.05949826  0.08107889  0.32015490    -0.00600
Br1014     Br  0.12783324  0.10118370  0.31871424    -0.00700
Br1015     Br  0.09269817  0.48221544  0.36441205    -0.00600
Br1016     Br  0.16070658  0.49812474  0.35881485    -0.00600
C1017       C  0.19688259  0.27111910  0.09041621    -0.01700
C1018       C  0.21902754  0.26037629  0.10169571     0.07900
C1019       C  0.24341875  0.24713645  0.09378483    -0.01900
C1020       C  0.24516633  0.24324780  0.07470423    -0.01900
C1021       C  0.22274043  0.25363720  0.06312988     0.08100
C1022       C  0.19897929  0.26854372  0.07124716    -0.02000
Br1023     Br  0.16959932  0.28732852  0.05656526    -0.00600
Br1024     Br  0.16339400  0.28906857  0.10142268    -0.00700
Br1025     Br  0.27803654  0.22218627  0.06515424    -0.00600
Br1026     Br  0.27419371  0.23347020  0.10947305    -0.00600
C1027       C  0.21880801  0.27745685  0.24735002    -0.01700
C1028       C  0.23054397  0.25451804  0.23684981     0.07900
C1029       C  0.24583614  0.23197391  0.24569097    -0.01900
C1030       C  0.24935588  0.23236001  0.26482341    -0.01900
C1031       C  0.23866581  0.25585547  0.27522466     0.08100
C1032       C  0.22322759  0.27833975  0.26641553    -0.02000
Br1033     Br  0.20789297  0.31019753  0.28055333    -0.00600
Br1034     Br  0.19641539  0.30756220  0.23555049    -0.00700
Br1035     Br  0.26866482  0.20052284  0.27692335    -0.00600
Br1036     Br  0.26280234  0.20098871  0.23150542    -0.00600
C1037       C  0.20359641  0.48884708  0.09092343    -0.01700
C1038       C  0.22616259  0.00234649  0.10014970     0.07900
C1039       C  0.24983025  0.01215690  0.09027878    -0.01900
C1040       C  0.25071593  0.00937841  0.07111576    -0.01900
C1041       C  0.22750481  0.99678726  0.06148376     0.08100
C1042       C  0.20436491  0.48559982  0.07175875    -0.02000
Br1043     Br  0.17477411  0.46322119  0.06025676    -0.00600
Br1044     Br  0.17207311  0.47382513  0.10486065    -0.00700
Br1045     Br  0.28448173  0.02297862  0.05881519    -0.00600
Br1046     Br  0.28133781  0.02926669  0.10334628    -0.00600
C1047       C  0.28528685  0.36529046  0.16583884    -0.01700
C1048       C  0.25964799  0.35315585  0.17200593     0.07900
C1049       C  0.23741547  0.37073723  0.17911906    -0.01900
C1050       C  0.24027035  0.40065396  0.17931745    -0.01900
C1051       C  0.26568269  0.41299271  0.17277770     0.08100
C1052       C  0.28850068  0.39534642  0.16650036    -0.02000
Br1053     Br  0.32294125  0.41267229  0.15755150    -0.00600
Br1054     Br  0.31478236  0.34087794  0.15528726    -0.00700
Br1055     Br  0.20793083  0.42472879  0.18666375    -0.00600
Br1056     Br  0.20189484  0.35393549  0.18706274    -0.00600
C1057       C  0.16376590  0.11673223  0.16655262    -0.01700
C1058       C  0.18997453  0.10175797  0.16922516     0.07900
C1059       C  0.21526309  0.11694044  0.17280204    -0.01900
C1060       C  0.21448085  0.14707612  0.17338130    -0.01900
C1061       C  0.18835403  0.16218832  0.17055570     0.08100
C1062       C  0.16299045  0.14710581  0.16708361    -0.02000
Br1063     Br  0.12788903  0.16821076  0.16205904    -0.00600
Br1064     Br  0.12942739  0.09556227  0.16176652    -0.00700
Br1065     Br  0.24978420  0.16774125  0.17666179    -0.00600
Br1066     Br  0.25144979  0.09646021  0.17606992    -0.00600
C1067       C  0.24411960  0.04313127  0.26236861    -0.01700
C1068       C  0.23698795  0.51996826  0.27359871     0.07900
C1069       C  0.22905871  0.49349653  0.26574662    -0.01900
C1070       C  0.22751535  0.49059930  0.24661247    -0.01900
C1071       C  0.23513379  0.51385459  0.23521913     0.08100
C1072       C  0.24389328  0.03996555  0.24326705    -0.02000
Br1073     Br  0.25579125  0.07165080  0.22816240    -0.00600
Br1074     Br  0.25347623  0.07972957  0.27326683    -0.00700
Br1075     Br  0.21385749  0.45511362  0.23617077    -0.00600
Br1076     Br  0.21952638  0.46152950  0.28133222    -0.00600
C1077       C  0.51565416  0.24366500  0.08873484    -0.01700
C1078       C  0.04131472  0.23856407  0.09836556     0.07900
C1079       C  0.06644384  0.23177783  0.08856875    -0.01900
C1080       C  0.06604105  0.23031322  0.06925892    -0.01900
C1081       C  0.04055241  0.23737478  0.05925258     0.08100
C1082       C  0.51502688  0.24296791  0.06941681    -0.02000
Br1083     Br  0.47808568  0.24902249  0.05779213    -0.00600
Br1084     Br  0.48103624  0.25208356  0.10237351    -0.00700
Br1085     Br  0.10030938  0.21570287  0.05732080    -0.00600
Br1086     Br  0.10154538  0.22411010  0.10192254    -0.00600
C1087       C  0.51274602  0.27050637  0.26179110    -0.01700
C1088       C  0.51832704  0.24625848  0.27300222     0.07900
C1089       C  0.02900670  0.22054623  0.26491182    -0.01900
C1090       C  0.03545609  0.21961134  0.24608989    -0.01900
C1091       C  0.52847869  0.24326366  0.23469107     0.08100
C1092       C  0.51655203  0.26861147  0.24269812    -0.02000
Br1093     Br  0.50455252  0.30077686  0.22762819    -0.00600
Br1094     Br  0.50106526  0.30691551  0.27262025    -0.00700
Br1095     Br  0.05514852  0.18616549  0.23606099    -0.00600
Br1096     Br  0.03384828  0.18596347  0.27939801    -0.00600
C1097       C  0.06005014  0.49795274  0.06935345    -0.01700
C1098       C  0.03616001  0.99089567  0.05794271     0.07900
C1099       C  0.51027109  0.98240406  0.06672011    -0.01900
C1100       C  0.50834458  0.98144487  0.08593037    -0.01900
C1101       C  0.03154358  0.98949762  0.09684655     0.08100
C1102       C  0.05758635  0.49729335  0.08863665    -0.02000
Br1103     Br  0.08961468  0.50735028  0.10399675    -0.00600
Br1104     Br  0.09614053  0.50980489  0.05916371    -0.00700
Br1105     Br  0.47378182  0.96843187  0.09769240    -0.00600
Br1106     Br  0.47645707  0.97139670  0.05325582    -0.00600
C1107       C  0.08829847  0.35318441  0.16702532    -0.01700
C1108       C  0.06443687  0.33597315  0.17042443     0.07900
C1109       C  0.53748474  0.34868781  0.17426421    -0.01900
C1110       C  0.53416830  0.37869267  0.17417765    -0.01900
C1111       C  0.05775751  0.39604460  0.17023250     0.08100
C1112       C  0.08482816  0.38335181  0.16648048    -0.02000
Br1113     Br  0.11619387  0.40698948  0.15896000    -0.00600
Br1114     Br  0.12520914  0.33511733  0.16263678    -0.00700
Br1115     Br  0.49641036  0.39594916  0.17752916    -0.00600
Br1116     Br  0.50445743  0.32501027  0.17844251    -0.00600
C1117       C  0.01787331  0.12674962  0.17261155    -0.01700
C1118       C  0.99596733  0.14625043  0.16729485     0.07900
C1119       C  0.46928403  0.13621843  0.16121463    -0.01900
C1120       C  0.46524301  0.10639269  0.15921185    -0.01900
C1121       C  0.98721757  0.08689557  0.16464837     0.08100
C1122       C  0.01326547  0.09712818  0.17172092    -0.02000
Br1123     Br  0.04361062  0.07049885  0.17904779    -0.00600
Br1124     Br  0.05501116  0.14061613  0.17990213    -0.00700
Br1125     Br  0.43099882  0.09240695  0.14778503    -0.00600
Br1126     Br  0.43885821  0.16349271  0.15556203    -0.00600
C1127       C  0.48708369  0.46483022  0.25986527    -0.01700
C1128       C  0.49508192  0.98863467  0.27078820     0.07900
C1129       C  0.00548793  0.01358331  0.26195759    -0.01900
C1130       C  0.01022926  0.01367532  0.24288121    -0.01900
C1131       C  0.50107392  0.99045097  0.23192959     0.08100
C1132       C  0.48888577  0.46632291  0.24058449    -0.02000
Br1133     Br  0.47426694  0.43529380  0.22586440    -0.00600
Br1134     Br  0.47482730  0.42959066  0.27117797    -0.00700
Br1135     Br  0.03100428  0.04485280  0.23197856    -0.00600
Br1136     Br  0.01167258  0.04848953  0.27573525    -0.00600
N1137       N  0.00425478  0.51624490  0.14237767    -0.36500
N1138       N  0.03894891  0.96464693  0.14563416    -0.57100
N1139       N  0.52744320  0.96461694  0.18555098    -0.36500
N1140       N  0.49506338  0.51577274  0.18275374    -0.57100
C1141       C  0.01682915  0.51509772  0.12568436     0.27100
C1142       C  0.99710805  0.54416974  0.14563167     0.27100
C1143       C  0.54796142  0.94394246  0.18374851     0.27100
C1144       C  0.52576167  0.97159413  0.20353235     0.27100
C1145       C  0.03561474  0.96512714  0.12727624     0.35700
C1146       C  0.04639399  0.93723892  0.14994808     0.35700
C1147       C  0.47940976  0.53916048  0.17777389     0.35700
C1148       C  0.48956777  0.51080873  0.20060534     0.35700
C1149       C  0.01628120  0.54222951  0.11783686    -0.21800
C1150       C  0.00423668  0.56068730  0.13052131    -0.21800
C1151       C  0.55958487  0.93752116  0.20073342    -0.21800
C1152       C  0.54579750  0.95523417  0.21321678    -0.21800
C1153       C  0.04172260  0.93825243  0.11984544    -0.22800
C1154       C  0.04822756  0.92042123  0.13425339    -0.22800
C1155       C  0.46353081  0.54915657  0.19257335    -0.22800
C1156       C  0.46954805  0.53085870  0.20696018    -0.22800
C1157       C  0.02832288  0.49000938  0.11726380    -0.18200
C1158       C  0.98501866  0.55550918  0.16196663    -0.18200
C1159       C  0.50529410  0.49075627  0.21151318    -0.18200
C1160       C  0.05247383  0.92731684  0.16778451    -0.18200
H1161       H  0.02448285  0.54823893  0.10458750     0.14700
H1162       H  0.00119821  0.58374217  0.12881609     0.14700
H1163       H  0.57561867  0.92105006  0.20384020     0.14700
H1164       H  0.54940152  0.95531353  0.22782329     0.14700
H1165       H  0.04122217  0.93209749  0.10558358     0.13000
H1166       H  0.05391030  0.89771882  0.13324431     0.13000
H1167       H  0.45025595  0.56855532  0.19316467     0.13000
H1168       H  0.46158770  0.53322940  0.22076356     0.13000
H1169       H  0.99953564  0.49881951  0.15070491     0.26300
H1170       H  0.51255711  0.96976302  0.17543905     0.26300
N1171       N  0.05582228  0.76516900  0.14644303    -0.36500
N1172       N  0.55121723  0.76520908  0.18728539    -0.57100
N1173       N  0.52136893  0.71377324  0.18646956    -0.36500
N1174       N  0.02349366  0.71361776  0.14571030    -0.57100
C1175       C  0.06005995  0.79318609  0.15053414     0.27100
C1176       C  0.04935194  0.76378296  0.12838111     0.27100
C1177       C  0.51632062  0.72163700  0.20405110     0.27100
C1178       C  0.50232393  0.69346117  0.18205727     0.27100
C1179       C  0.56776572  0.78808548  0.18425327     0.35700
C1180       C  0.55195867  0.76001275  0.20543573     0.35700
C1181       C  0.03207001  0.71388443  0.12804125     0.35700
C1182       C  0.01464930  0.68659891  0.14906194     0.35700
C1183       C  0.05738222  0.80961355  0.13472123    -0.21800
C1184       C  0.05103650  0.79094922  0.12069552    -0.21800
C1185       C  0.49364916  0.70600277  0.21083184    -0.21800
C1186       C  0.48508929  0.68787491  0.19699562    -0.21800
C1187       C  0.57956829  0.79741669  0.20058421    -0.22800
C1188       C  0.57002255  0.77918831  0.21399996    -0.22800
C1189       C  0.02798017  0.68723803  0.12001727    -0.22800
C1190       C  0.01717787  0.66982692  0.13338049    -0.22800
C1191       C  0.06640780  0.80444485  0.16808064    -0.18200
C1192       C  0.04167008  0.73856380  0.11880094    -0.18200
C1193       C  0.00315551  0.67704287  0.16581348    -0.18200
C1194       C  0.53292232  0.74126869  0.21429609    -0.18200
H1195       H  0.05974431  0.83270575  0.13339453     0.14700
H1196       H  0.04719255  0.79683921  0.10659028     0.14700
H1197       H  0.48474416  0.70694224  0.22446187     0.14700
H1198       H  0.46847290  0.67196521  0.19790419     0.14700
H1199       H  0.59242813  0.81632980  0.20269720     0.13000
H1200       H  0.57414941  0.78118424  0.22849328     0.13000
H1201       H  0.03233895  0.68102969  0.10602254     0.13000
H1202       H  0.01148052  0.64745291  0.13165864     0.13000
H1203       H  0.05867336  0.74786243  0.15533555     0.26300
H1204       H  0.53926369  0.71842983  0.17863960     0.26300
N1205       N  0.24693854  0.98092227  0.14780280    -0.36500
N1206       N  0.24936906  0.98443137  0.18802838    -0.57100
N1207       N  0.21373472  0.53384217  0.18713762    -0.36500
N1208       N  0.20910002  0.53112844  0.14712663    -0.57100
C1209       C  0.25502719  0.95367150  0.15223242     0.27100
C1210       C  0.23741066  0.98023569  0.13033603     0.27100
C1211       C  0.21283194  0.52810686  0.20524662     0.27100
C1212       C  0.19341653  0.55407005  0.18358847     0.27100
C1213       C  0.26763315  0.96227871  0.18481712     0.35700
C1214       C  0.25248270  0.99186108  0.20571486     0.35700
C1215       C  0.21576182  0.52931725  0.12917774     0.35700
C1216       C  0.20029738  0.55866802  0.15011291     0.35700
C1217       C  0.25151410  0.93575715  0.13718453    -0.21800
C1218       C  0.24095017  0.95266519  0.12326935    -0.21800
C1219       C  0.19100325  0.54450305  0.21322521    -0.21800
C1220       C  0.17909651  0.56133501  0.19956163    -0.21800
C1221       C  0.28278373  0.95545846  0.20057381    -0.22800
C1222       C  0.27366645  0.97474906  0.21377354    -0.22800
C1223       C  0.21000603  0.55536982  0.12057245    -0.22800
C1224       C  0.20058314  0.57414862  0.13391628    -0.22800
C1225       C  0.26540008  0.94431867  0.16945087    -0.18200
C1226       C  0.22634225  0.50410158  0.12049288    -0.18200
C1227       C  0.19213409  0.57007635  0.16729406    -0.18200
C1228       C  0.23361612  0.01114291  0.21490451    -0.18200
H1229       H  0.25617129  0.91284238  0.13622570     0.14700
H1230       H  0.23581091  0.94526867  0.10964963     0.14700
H1231       H  0.18541903  0.54552993  0.22755603     0.14700
H1232       H  0.16272989  0.57798334  0.20129553     0.14700
H1233       H  0.29777322  0.93759899  0.20251320     0.13000
H1234       H  0.28040470  0.97482596  0.22792391     0.13000
H1235       H  0.21292326  0.56046810  0.10628505     0.13000
H1236       H  0.19459385  0.59661087  0.13193066     0.13000
H1237       H  0.24936120  0.99923686  0.15583680     0.26300
H1238       H  0.23044252  0.52876174  0.17827363     0.26300
N1239       N  0.23469217  0.78552268  0.14921934    -0.36500
N1240       N  0.24019275  0.78246284  0.18927550    -0.57100
N1241       N  0.20942304  0.73071680  0.18922341    -0.36500
N1242       N  0.20129904  0.73391339  0.14915655    -0.57100
C1243       C  0.24193723  0.81284065  0.15333838     0.27100
C1244       C  0.22476416  0.78563145  0.13183220     0.27100
C1245       C  0.20948531  0.73611341  0.20743041     0.27100
C1246       C  0.19094569  0.70928157  0.18612357     0.27100
C1247       C  0.25709354  0.80490447  0.18569034     0.35700
C1248       C  0.24474017  0.77528290  0.20690778     0.35700
C1249       C  0.20654586  0.73593602  0.13102418     0.35700
C1250       C  0.19444074  0.70614778  0.15219498     0.35700
C1251       C  0.23678195  0.83046696  0.13830143    -0.21800
C1252       C  0.22643698  0.81313251  0.12461248    -0.21800
C1253       C  0.19038470  0.71800039  0.21597308    -0.21800
C1254       C  0.17899783  0.70072266  0.20251681    -0.21800
C1255       C  0.27267608  0.81212254  0.20113048    -0.22800
C1256       C  0.26505086  0.79309629  0.21457200    -0.22800
C1257       C  0.20149663  0.70988402  0.12242853    -0.22800
C1258       C  0.19414410  0.69090765  0.13586766    -0.22800
C1259       C  0.25442844  0.82206539  0.16993628    -0.18200
C1260       C  0.21597249  0.76101434  0.12211923    -0.18200
C1261       C  0.18899308  0.69400499  0.16951224    -0.18200
C1262       C  0.22832478  0.75506205  0.21652533    -0.18200
H1263       H  0.24072394  0.85333329  0.13713540     0.14700
H1264       H  0.22070444  0.82003624  0.11095548     0.14700
H1265       H  0.18612669  0.71646471  0.23046091     0.14700
H1266       H  0.16439358  0.68316332  0.20458987     0.14700
H1267       H  0.28712312  0.82995852  0.20270769     0.13000
H1268       H  0.27259610  0.79321134  0.22855963     0.13000
H1269       H  0.20361445  0.70483548  0.10805207     0.13000
H1270       H  0.18941418  0.66835293  0.13384603     0.13000
H1271       H  0.23907735  0.76735144  0.15711357     0.26300
H1272       H  0.22440787  0.73743058  0.17976306     0.26300
N1273       N  0.01376484  0.50789256  0.36003304    -0.36500
N1274       N  0.45963890  0.48514532  0.35925270    -0.57100
N1275       N  0.46248584  0.47767744  0.31813612    -0.36500
N1276       N  0.01750859  0.50134306  0.31950584    -0.57100
C1277       C  0.00499635  0.51559235  0.37699716     0.27100
C1278       C  0.03531607  0.52528702  0.35561005     0.27100
C1279       C  0.43404113  0.47870692  0.32140382     0.27100
C1280       C  0.46630813  0.48433323  0.30022265     0.27100
C1281       C  0.46239537  0.48576787  0.37766715     0.35700
C1282       C  0.43508152  0.47174380  0.35547874     0.35700
C1283       C  0.04480344  0.50687803  0.32412776     0.35700
C1284       C  0.01808124  0.49140220  0.30210654     0.35700
C1285       C  0.02141019  0.53797656  0.38349565    -0.21800
C1286       C  0.04062337  0.54417297  0.36992315    -0.21800
C1287       C  0.41952368  0.48487144  0.30522338    -0.21800
C1288       C  0.43991416  0.48827702  0.29184746    -0.21800
C1289       C  0.43966553  0.47210155  0.38577601    -0.22800
C1290       C  0.42216292  0.46343034  0.37170851    -0.22800
C1291       C  0.06296691  0.50009892  0.30967418    -0.22800
C1292       C  0.04596731  0.49028200  0.29568569    -0.22800
C1293       C  0.48323377  0.50204719  0.38686472    -0.18200
C1294       C  0.05287563  0.52149568  0.34022131    -0.18200
C1295       C  0.49320081  0.48719503  0.29147435    -0.18200
C1296       C  0.42072705  0.47437780  0.33855695    -0.18200
H1297       H  0.01987480  0.54852494  0.39666742     0.14700
H1298       H  0.05719963  0.56015652  0.37069838     0.14700
H1299       H  0.39657518  0.48701281  0.30327576     0.14700
H1300       H  0.43580711  0.49376984  0.27770907     0.14700
H1301       H  0.43524489  0.47028382  0.40022963     0.13000
H1302       H  0.40132113  0.45386835  0.37325035     0.13000
H1303       H  0.08590595  0.50303572  0.30902765     0.13000
H1304       H  0.05311478  0.48411624  0.28215115     0.13000
H1305       H  0.00851232  0.48932353  0.35283512     0.26300
H1306       H  0.47816569  0.47134532  0.32753233     0.26300
N1307       N  0.02964882  0.73883973  0.36245414    -0.36500
N1308       N  0.47582014  0.76507672  0.35861149    -0.57100
N1309       N  0.48244588  0.76409905  0.31814567    -0.36500
N1310       N  0.03689419  0.73630380  0.32241699    -0.57100
C1311       C  0.02009641  0.73589067  0.37976135     0.27100
C1312       C  0.05274650  0.72135800  0.36060890     0.27100
C1313       C  0.45385736  0.76770875  0.32007671     0.27100
C1314       C  0.48728571  0.75426828  0.30092806     0.27100
C1315       C  0.47820280  0.76837157  0.37689985     0.35700
C1316       C  0.45258135  0.78046899  0.35335121     0.35700
C1317       C  0.06407047  0.73211854  0.32820196     0.35700
C1318       C  0.03861519  0.74416772  0.30468488     0.35700
C1319       C  0.03725873  0.71596425  0.38898750    -0.21800
C1320       C  0.05809948  0.70690543  0.37687383    -0.21800
C1321       C  0.44037716  0.76079812  0.30373282    -0.21800
C1322       C  0.46152818  0.75231490  0.29164482    -0.21800
C1323       C  0.45645562  0.78625892  0.38338948    -0.22800
C1324       C  0.43996651  0.79370318  0.36846676    -0.22800
C1325       C  0.08311397  0.73695668  0.31403638    -0.22800
C1326       C  0.06690880  0.74456168  0.29907934    -0.22800
C1327       C  0.49804133  0.75274529  0.38776369    -0.18200
C1328       C  0.07181939  0.72270181  0.34587399    -0.18200
C1329       C  0.51467232  0.74853447  0.29332333    -0.18200
C1330       C  0.43964797  0.77776167  0.33602288    -0.18200
H1331       H  0.03564233  0.70954211  0.40314840     0.14700
H1332       H  0.07591002  0.69237058  0.37990752     0.14700
H1333       H  0.41763679  0.76183638  0.30078507     0.14700
H1334       H  0.45834690  0.74554364  0.27764417     0.14700
H1335       H  0.45215607  0.79213260  0.39744675     0.13000
H1336       H  0.42025015  0.80637369  0.36883150     0.13000
H1337       H  0.10623729  0.73496306  0.31439076     0.13000
H1338       H  0.07494529  0.74956732  0.28561662     0.13000
H1339       H  0.02429254  0.75533305  0.35339048     0.26300
H1340       H  0.49781276  0.77039344  0.32759251     0.26300
N1341       N  0.20917273  0.04851772  0.35970610    -0.36500
N1342       N  0.20909262  0.04370469  0.31917604    -0.57100
N1343       N  0.26318968  0.01412910  0.32214087    -0.36500
N1344       N  0.26296542  0.02081758  0.36256692    -0.57100
C1345       C  0.18502590  0.06306233  0.35505594     0.27100
C1346       C  0.21367134  0.05256677  0.37782156     0.27100
C1347       C  0.26202380  0.01918047  0.30393384     0.27100
C1348       C  0.29097981  0.00962603  0.32646343     0.27100
C1349       C  0.18088931  0.04756526  0.32241831     0.35700
C1350       C  0.21097415  0.03238490  0.30217097     0.35700
C1351       C  0.25673497  0.02076238  0.38056136     0.35700
C1352       C  0.28636580  0.00388795  0.36033421     0.35700
C1353       C  0.17417754  0.07728415  0.37032128    -0.21800
C1354       C  0.19245497  0.07091340  0.38467256    -0.21800
C1355       C  0.28921544  0.01734420  0.29651294    -0.21800
C1356       C  0.30759646  0.01160765  0.31076079    -0.21800
C1357       C  0.16507087  0.03951991  0.30715832    -0.22800
C1358       C  0.18425090  0.03056930  0.29418289    -0.22800
C1359       C  0.27657942  0.00378655  0.38994604    -0.22800
C1360       C  0.29552392  0.99316098  0.37708378    -0.22800
C1361       C  0.16899015  0.05698101  0.33917839    -0.18200
C1362       C  0.23430814  0.03732012  0.38854197    -0.18200
C1363       C  0.30161777  0.00141178  0.34382828    -0.18200
C1364       C  0.23669496  0.02360709  0.29381660    -0.18200
H1365       H  0.15406262  0.08923441  0.37125727     0.14700
H1366       H  0.18937148  0.07742605  0.39874702     0.14700
H1367       H  0.29517447  0.01975390  0.28232712     0.14700
H1368       H  0.33057978  0.00857025  0.30957151     0.14700
H1369       H  0.14204345  0.03947656  0.30550602     0.13000
H1370       H  0.17901937  0.02240452  0.28075256     0.13000
H1371       H  0.27763942  0.99997685  0.40451416     0.13000
H1372       H  0.31427238  0.97969350  0.37976903     0.13000
H1373       H  0.21813780  0.03234104  0.35163740     0.26300
H1374       H  0.24588582  0.01049227  0.33071671     0.26300
N1375       N  0.23378562  0.73242712  0.36402207    -0.36500
N1376       N  0.22458047  0.73566703  0.32399774    -0.57100
N1377       N  0.27401014  0.77102374  0.32104277    -0.36500
N1378       N  0.28340481  0.76500893  0.36148381    -0.57100
C1379       C  0.21174906  0.71448121  0.36181571     0.27100
C1380       C  0.24325657  0.72931153  0.38141431     0.27100
C1381       C  0.26896868  0.76541905  0.30310740     0.27100
C1382       C  0.30214114  0.77699250  0.32265524     0.27100
C1383       C  0.19894303  0.72582894  0.32940025     0.35700
C1384       C  0.22099564  0.74448075  0.30650603     0.35700
C1385       C  0.28235031  0.76446030  0.37992791     0.35700
C1386       C  0.30546441  0.78162755  0.35685075     0.35700
C1387       C  0.20714251  0.69945842  0.37785689    -0.21800
C1388       C  0.22727623  0.70861243  0.39021551    -0.21800
C1389       C  0.29367575  0.76963620  0.29311952    -0.21800
C1390       C  0.31471100  0.77648769  0.30545810    -0.21800
C1391       C  0.17938958  0.72753451  0.31509640    -0.22800
C1392       C  0.19348805  0.73901289  0.30052530    -0.22800
C1393       C  0.30384005  0.78116283  0.38719057    -0.22800
C1394       C  0.31885304  0.79166882  0.37252719    -0.22800
C1395       C  0.19234129  0.71606549  0.34716830    -0.18200
C1396       C  0.26371350  0.74692569  0.39002008    -0.18200
C1397       C  0.31713391  0.78259768  0.33911932    -0.18200
C1398       C  0.24273075  0.75612557  0.29560428    -0.18200
H1399       H  0.19011043  0.68456118  0.38061910     0.14700
H1400       H  0.22899018  0.70186371  0.40432669     0.14700
H1401       H  0.29655052  0.76708287  0.27854005     0.14700
H1402       H  0.33686231  0.78050792  0.30210692     0.14700
H1403       H  0.15723290  0.72111410  0.31512749     0.13000
H1404       H  0.18438175  0.74324282  0.28716963     0.13000
H1405       H  0.30905673  0.78416606  0.40146933     0.13000
H1406       H  0.33809990  0.80429772  0.37327360     0.13000
H1407       H  0.23786701  0.74923283  0.35531957     0.26300
H1408       H  0.25905595  0.77207790  0.33140223     0.26300
O1409       O  0.48288121  0.00305735  0.47615639    -0.72800
O1410       O  0.48096870  0.01439475  0.53076035    -0.73800
O1411       O  0.43720284  0.01034117  0.50281650    -0.62400
O1412       O  0.02751139  0.00760102  0.50401334    -0.70800
O1413       O  0.02780086  0.55438382  0.49978649    -0.70400
O1414       O  0.43742355  0.55735033  0.50020221    -0.61700
O1415       O  0.48327522  0.56123035  0.52750119    -0.74200
O1416       O  0.48222304  0.55018917  0.47213060    -0.72900
Cu1417     Cu  0.48215530  0.00736125  0.50355237     1.04600
Cu1418     Cu  0.48268681  0.55738397  0.49973869     1.04300
C1419       C  0.48266200  0.02476393  0.46542291     0.93400
C1420       C  0.48204500  0.03943361  0.53801103     0.92500
C1421       C  0.42281897  0.03429253  0.50168771     0.84600
C1422       C  0.04217954  0.03070190  0.50197091     0.90900
O1423       O  0.49922263  0.72076065  0.47424398    -0.72800
O1424       O  0.49952172  0.71170013  0.52923798    -0.73800
O1425       O  0.45474747  0.71622936  0.50222049    -0.62400
O1426       O  0.04510494  0.71569467  0.50168342    -0.70800
O1427       O  0.04469741  0.76272472  0.50481554    -0.70400
O1428       O  0.45425076  0.76358368  0.50525793    -0.61700
O1429       O  0.50016012  0.75902754  0.53212161    -0.74200
O1430       O  0.49855362  0.76823089  0.47746458    -0.72900
Cu1431     Cu  0.49976894  0.71450909  0.50169991     1.04600
Cu1432     Cu  0.49945445  0.76493525  0.50498046     1.04300
C1433       C  0.49831988  0.74598956  0.46713483     0.93400
C1434       C  0.49936802  0.73410641  0.53945595     0.92500
C1435       C  0.44018397  0.73995115  0.50404204     0.84600
C1436       C  0.05951384  0.73902608  0.50345042     0.90900
O1437       O  0.18596055  0.55537912  0.50512684    -0.72800
O1438       O  0.27636206  0.55821167  0.50596445    -0.73800
O1439       O  0.23083670  0.56091286  0.47809443    -0.62400
O1440       O  0.23088919  0.55255738  0.53336010    -0.70800
O1441       O  0.23503567  0.00537050  0.53031291    -0.70400
O1442       O  0.23323699  0.01336102  0.47557142    -0.61700
O1443       O  0.27887179  0.01104101  0.50267523    -0.74200
O1444       O  0.18862085  0.00801517  0.50291733    -0.72900
Cu1445     Cu  0.23097807  0.55837146  0.50577206     1.04600
Cu1446     Cu  0.23399699  0.00792109  0.50280770     1.04300
C1447       C  0.17287450  0.53122843  0.50365567     0.93400
C1448       C  0.29202688  0.53508560  0.50433614     0.92500
C1449       C  0.23152157  0.03823193  0.46809323     0.84600
C1450       C  0.23332265  0.52754055  0.54066440     0.90900
O1451       O  0.25235212  0.71264743  0.53192632    -0.72800
O1452       O  0.25301443  0.71613221  0.47690192    -0.73800
O1453       O  0.29707167  0.71511162  0.50468966    -0.62400
O1454       O  0.20663933  0.71417036  0.50412545    -0.70800
O1455       O  0.20558934  0.76132381  0.50565215    -0.70400
O1456       O  0.29559557  0.76262875  0.50644175    -0.61700
O1457       O  0.25208671  0.76383392  0.47854885    -0.74200
O1458       O  0.24978860  0.75996389  0.53371080    -0.72900
Cu1459     Cu  0.25217948  0.71294370  0.50438788     1.04600
Cu1460     Cu  0.25060524  0.76350918  0.50613240     1.04300
C1461       C  0.25131751  0.73547838  0.54170451     0.93400
C1462       C  0.25379463  0.74068690  0.46903207     0.92500
C1463       C  0.31061520  0.73905350  0.50548377     0.84600
C1464       C  0.19145702  0.73774097  0.50485426     0.90900
O1465       O  0.06318816  0.53719937  0.00115394    -0.72800
O1466       O  0.06145037  0.94690875  0.00052193    -0.73800
O1467       O  0.06180871  0.49224242  0.97284349    -0.62400
O1468       O  0.06178090  0.49110001  0.02882272    -0.70800
O1469       O  0.51479361  0.49494412  0.02809842    -0.70400
O1470       O  0.51440758  0.49313331  0.97324771    -0.61700
O1471       O  0.51424230  0.94855118  0.00123679    -0.74200
O1472       O  0.51600858  0.53926237  0.00033041    -0.72900
Cu1473     Cu  0.06369334  0.49191344  0.00084950     1.04600
Cu1474     Cu  0.51337733  0.49408659  0.00073296     1.04300
C1475       C  0.03996369  0.55266676  0.00072436     0.93400
C1476       C  0.03768533  0.93329214  0.00098171     0.92500
C1477       C  0.03778279  0.49212362  0.96429309     0.84600
C1478       C  0.03785584  0.49251336  0.03739004     0.90900
O1479       O  0.51630678  0.78790013  0.00313161    -0.72800
O1480       O  0.51846279  0.69769577  0.00039361    -0.73800
O1481       O  0.51755029  0.73986782  0.02939215    -0.62400
O1482       O  0.51780238  0.74518853  0.97438331    -0.70800
O1483       O  0.06526492  0.74524568  0.97436206    -0.70400
O1484       O  0.06459275  0.74122324  0.02975391    -0.61700
O1485       O  0.06572091  0.69761690  0.00093823    -0.74200
O1486       O  0.06350593  0.78829629  0.00300878    -0.72900
Cu1487     Cu  0.51601431  0.74265398  0.00184042     1.04600
Cu1488     Cu  0.06638894  0.74305387  0.00204825     1.04300
C1489       C  0.03949771  0.80254236  0.00300762     0.93400
C1490       C  0.04232894  0.68323366  0.00041023     0.92500
C1491       C  0.04097330  0.73942706  0.03847553     0.84600
C1492       C  0.04149198  0.74654963  0.96564051     0.90900
O1493       O  0.20351709  0.49610011  0.03219035    -0.72800
O1494       O  0.20420025  0.49364506  0.97686364    -0.73800
O1495       O  0.20517418  0.94987409  0.00517112    -0.62400
O1496       O  0.20214739  0.54015536  0.00432361    -0.70800
O1497       O  0.24919713  0.54063551  0.00500878    -0.70400
O1498       O  0.25237713  0.95000092  0.00454374    -0.61700
O1499       O  0.25139665  0.49573128  0.97716065    -0.74200
O1500       O  0.25073598  0.49465387  0.03210416    -0.72900
Cu1501     Cu  0.20215993  0.49491836  0.00457816     1.04600
Cu1502     Cu  0.25246326  0.49530703  0.00468138     1.04300
C1503       C  0.22723135  0.49560500  0.04098416     0.93400
C1504       C  0.22797782  0.49424699  0.96818468     0.92500
C1505       C  0.22908154  0.93552944  0.00494632     0.84600
C1506       C  0.22521086  0.55493716  0.00495108     0.90900
O1507       O  0.25147237  0.78958811  0.00582962    -0.72800
O1508       O  0.24779712  0.69949227  0.00838790    -0.73800
O1509       O  0.25092811  0.74184706  0.97966029    -0.62400
O1510       O  0.24819665  0.74776513  0.03466911    -0.70800
O1511       O  0.20100012  0.74796231  0.03350093    -0.70400
O1512       O  0.20393640  0.74659504  0.97836175    -0.61700
O1513       O  0.20082733  0.70186492  0.00638775    -0.74200
O1514       O  0.20426674  0.79207231  0.00569589    -0.72900
Cu1515     Cu  0.25116954  0.74448752  0.00718448     1.04600
Cu1516     Cu  0.20094345  0.74713788  0.00595236     1.04300
C1517       C  0.22834743  0.80519787  0.00563141     0.93400
C1518       C  0.22384950  0.68617354  0.00749133     0.92500
C1519       C  0.22797713  0.74384536  0.97014543     0.84600
C1520       C  0.22405811  0.74939943  0.04287282     0.90900
N1521       N  0.03002660  0.96771589  0.85444865    -0.36500
N1522       N  0.00381222  0.52125223  0.86162928    -0.57100
N1523       N  0.99615853  0.53061556  0.82166269    -0.36500
N1524       N  0.02401854  0.97655662  0.81416531    -0.57100
C1525       C  0.03720986  0.97032538  0.87236885     0.27100
C1526       C  0.04623864  0.94616038  0.84735242     0.27100
C1527       C  0.99309309  0.55759678  0.82847014     0.27100
C1528       C  0.50140799  0.53318469  0.80348719     0.27100
C1529       C  0.00560912  0.51227321  0.87913827     0.35700
C1530       C  0.98800700  0.54576264  0.86168170     0.35700
C1531       C  0.02956248  0.94790999  0.81487584     0.35700
C1532       C  0.51308556  0.98200303  0.79732965     0.35700
C1533       C  0.05830927  0.95004498  0.87667690    -0.21800
C1534       C  0.06375951  0.93454481  0.86092753    -0.21800
C1535       C  0.49603070  0.57747301  0.81439881    -0.21800
C1536       C  0.50110315  0.56202962  0.79863978    -0.21800
C1537       C  0.99042028  0.53103653  0.89043095    -0.22800
C1538       C  0.97936726  0.55241186  0.87935354    -0.22800
C1539       C  0.52264559  0.93513803  0.79829886    -0.22800
C1540       C  0.51246480  0.95687943  0.78710077    -0.22800
C1541       C  0.02387738  0.98948495  0.88501926    -0.18200
C1542       C  0.04140135  0.93327315  0.83014367    -0.18200
C1543       C  0.50508331  0.00983023  0.79103557    -0.18200
C1544       C  0.98641965  0.56491212  0.84682555    -0.18200
H1545       H  0.06798506  0.94614071  0.88991124     0.14700
H1546       H  0.07810265  0.91603060  0.85974626     0.14700
H1547       H  0.49445063  0.60073314  0.81533237     0.14700
H1548       H  0.50424634  0.57099149  0.78516433     0.14700
H1549       H  0.98867575  0.53019200  0.90515806     0.13000
H1550       H  0.96761770  0.57147417  0.88388482     0.13000
H1551       H  0.52501670  0.91259173  0.79460668     0.13000
H1552       H  0.50529736  0.95448823  0.77312070     0.13000
H1553       H  0.01215795  0.97659309  0.84791446     0.26300
H1554       H  0.99210258  0.51166918  0.82872109     0.26300
N1555       N  0.03668588  0.77433418  0.85641994    -0.36500
N1556       N  0.02820881  0.76831496  0.81653720    -0.57100
N1557       N  0.99166981  0.71994949  0.82324610    -0.36500
N1558       N  0.00155183  0.72679966  0.86325115    -0.57100
C1559       C  0.05275626  0.79589496  0.85003239     0.27100
C1560       C  0.04277944  0.77088767  0.87444535     0.27100
C1561       C  0.49704682  0.71659266  0.80517082     0.27100
C1562       C  0.98468434  0.69374144  0.82974612     0.27100
C1563       C  0.03691227  0.79590661  0.81730443     0.35700
C1564       C  0.51782480  0.76429320  0.79950584     0.35700
C1565       C  0.00655469  0.73364076  0.88086965     0.35700
C1566       C  0.98256269  0.70540249  0.86317836     0.35700
C1567       C  0.06945902  0.80651398  0.86411046    -0.21800
C1568       C  0.06362554  0.79031692  0.87944272    -0.21800
C1569       C  0.49196456  0.68847556  0.79994499    -0.21800
C1570       C  0.48451470  0.67396426  0.81547884    -0.21800
C1571       C  0.53264494  0.80913275  0.80051182    -0.22800
C1572       C  0.52107535  0.78888621  0.78911364    -0.22800
C1573       C  0.98996276  0.71686399  0.89220163    -0.22800
C1574       C  0.97481219  0.69887393  0.88096992    -0.22800
C1575       C  0.04825084  0.80959860  0.83299093    -0.18200
C1576       C  0.02792935  0.75277870  0.88675568    -0.18200
C1577       C  0.97915219  0.68665252  0.84824820    -0.18200
C1578       C  0.50593223  0.73841740  0.79314900    -0.18200
H1579       H  0.08329687  0.82495069  0.86357037     0.14700
H1580       H  0.07237548  0.79370380  0.89296065     0.14700
H1581       H  0.49407314  0.67918648  0.78643000     0.14700
H1582       H  0.47962264  0.65128848  0.81608950     0.14700
H1583       H  0.53738014  0.83110487  0.79677167     0.13000
H1584       H  0.51495715  0.79214537  0.77498793     0.13000
H1585       H  0.98990105  0.71653100  0.90698159     0.13000
H1586       H  0.96133798  0.68146670  0.88539101     0.13000
H1587       H  0.01951174  0.76628400  0.84930416     0.26300
H1588       H  0.99131609  0.73915430  0.83057047     0.26300
N1589       N  0.24898176  0.51208220  0.86113257    -0.36500
N1590       N  0.24806179  0.51159338  0.82070045    -0.57100
N1591       N  0.21413240  0.96191920  0.82136415    -0.36500
N1592       N  0.21237744  0.96245072  0.86157028    -0.57100
C1593       C  0.25804370  0.53892356  0.85731110     0.27100
C1594       C  0.24067898  0.51213135  0.87887655     0.27100
C1595       C  0.21127607  0.96860961  0.80346416     0.27100
C1596       C  0.19555559  0.94090131  0.82506427     0.27100
C1597       C  0.26640309  0.53313071  0.82371898     0.35700
C1598       C  0.24877842  0.50580396  0.80261621     0.35700
C1599       C  0.21904971  0.96371944  0.87953635     0.35700
C1600       C  0.20452770  0.93503729  0.85829368     0.35700
C1601       C  0.25645291  0.55582223  0.87299325    -0.21800
C1602       C  0.24582177  0.53882735  0.88661149    -0.21800
C1603       C  0.18988681  0.95199045  0.79581937    -0.21800
C1604       C  0.18045842  0.93395788  0.80941102    -0.21800
C1605       C  0.27902628  0.54123805  0.80744082    -0.22800
C1606       C  0.26826454  0.52353018  0.79409093    -0.22800
C1607       C  0.21396102  0.93754027  0.88788304    -0.22800
C1608       C  0.20539264  0.91912877  0.87433018    -0.22800
C1609       C  0.26753478  0.54898813  0.84011456    -0.18200
C1610       C  0.22946346  0.48843028  0.88845556    -0.18200
C1611       C  0.19667578  0.92410566  0.84101500    -0.18200
C1612       C  0.22954036  0.48719098  0.79361979    -0.18200
H1613       H  0.26233011  0.57818098  0.87452173     0.14700
H1614       H  0.24194453  0.54558104  0.90055645     0.14700
H1615       H  0.18302259  0.95162446  0.78169535     0.14700
H1616       H  0.16519768  0.91683749  0.80782636     0.14700
H1617       H  0.29365394  0.55876965  0.80534363     0.13000
H1618       H  0.27312096  0.52463515  0.77966564     0.13000
H1619       H  0.21703969  0.93198885  0.90211044     0.13000
H1620       H  0.20029922  0.89663580  0.87613760     0.13000
H1621       H  0.25022394  0.49432217  0.85246448     0.26300
H1622       H  0.23109526  0.96711042  0.82988033     0.26300
N1623       N  0.22219536  0.76279116  0.86261365    -0.36500
N1624       N  0.25675009  0.71071023  0.86424047    -0.57100
N1625       N  0.25746347  0.71010952  0.82385991    -0.36500
N1626       N  0.22470608  0.76161615  0.82234179    -0.57100
C1627       C  0.22934990  0.76206854  0.88053967     0.27100
C1628       C  0.21645974  0.79066735  0.85833043     0.27100
C1629       C  0.27553881  0.68801291  0.82779150     0.27100
C1630       C  0.25965601  0.71551140  0.80574433     0.27100
C1631       C  0.24799020  0.71191311  0.88186370     0.35700
C1632       C  0.26564568  0.68321515  0.86118904     0.35700
C1633       C  0.20697742  0.78434385  0.82506926     0.35700
C1634       C  0.22375611  0.75546582  0.80436080     0.35700
C1635       C  0.22727862  0.78958485  0.88788013    -0.21800
C1636       C  0.21960231  0.80773408  0.87379723    -0.21800
C1637       C  0.28955536  0.67910315  0.81199888    -0.21800
C1638       C  0.27975424  0.69669978  0.79809278    -0.21800
C1639       C  0.25260440  0.68552134  0.89028594    -0.22800
C1640       C  0.26352255  0.66720670  0.87712203    -0.22800
C1641       C  0.19434743  0.79274713  0.80870332    -0.22800
C1642       C  0.20491875  0.77425917  0.79552894    -0.22800
C1643       C  0.23685717  0.73698857  0.89049821    -0.18200
C1644       C  0.20718940  0.80102749  0.84108244    -0.18200
C1645       C  0.24204071  0.73509581  0.79576715    -0.18200
C1646       C  0.27463876  0.67193647  0.84409131    -0.18200
H1647       H  0.23129829  0.79600981  0.90185430     0.14700
H1648       H  0.21628147  0.83085026  0.87492231     0.14700
H1649       H  0.30421786  0.66086662  0.81051377     0.14700
H1650       H  0.28566529  0.69486358  0.78384362     0.14700
H1651       H  0.24805596  0.67994408  0.90431937     0.13000
H1652       H  0.26905732  0.64461139  0.87900848     0.13000
H1653       H  0.18018446  0.81117067  0.80640051     0.13000
H1654       H  0.20028952  0.77534400  0.78105336     0.13000
H1655       H  0.21891698  0.74499513  0.85424063     0.26300
H1656       H  0.24122135  0.71718110  0.83250878     0.26300
N1657       N  0.00630417  0.06579510  0.64558682    -0.36500
N1658       N  0.00881284  0.05615896  0.68621544    -0.57100
N1659       N  0.46004293  0.02239401  0.68521223    -0.36500
N1660       N  0.45742689  0.02872446  0.64486227    -0.57100
C1661       C  0.03411290  0.07099489  0.64935624     0.27100
C1662       C  0.00464696  0.05999960  0.62742976     0.27100
C1663       C  0.46904500  0.01619135  0.70243633     0.27100
C1664       C  0.44016022  0.00300945  0.68060494     0.27100
C1665       C  0.03066249  0.07402008  0.68330771     0.35700
C1666       C  0.00517088  0.05421567  0.70445752     0.35700
C1667       C  0.45669301  0.03819074  0.62736276     0.35700
C1668       C  0.43146716  0.01744760  0.64814811     0.35700
C1669       C  0.04982923  0.07037380  0.63326321    -0.21800
C1670       C  0.03114231  0.06383566  0.61939753    -0.21800
C1671       C  0.45462381  0.99229598  0.70875782    -0.21800
C1672       C  0.43595274  0.98434408  0.69509144    -0.21800
C1673       C  0.04090519  0.08395842  0.69991841    -0.22800
C1674       C  0.02416993  0.07210841  0.71331943    -0.22800
C1675       C  0.43058812  0.03217188  0.61937222    -0.22800
C1676       C  0.41443764  0.01935317  0.63260609    -0.22800
C1677       C  0.04645644  0.07360314  0.66698528    -0.18200
C1678       C  0.48021025  0.04993591  0.61806716    -0.18200
C1679       C  0.42295381  0.00466001  0.66476963    -0.18200
C1680       C  0.48848779  0.03282746  0.71287111    -0.18200
H1681       H  0.07265077  0.07343403  0.63176811     0.14700
H1682       H  0.03679289  0.06067702  0.60519477     0.14700
H1683       H  0.45657979  0.98226580  0.72204998     0.14700
H1684       H  0.42065706  0.96712612  0.69583311     0.14700
H1685       H  0.05967379  0.09680118  0.70222598     0.13000
H1686       H  0.02736765  0.07436796  0.72789110     0.13000
H1687       H  0.42391876  0.03658944  0.60547167     0.13000
H1688       H  0.39278128  0.01181628  0.63087921     0.13000
H1689       H  0.98950021  0.06607527  0.65493533     0.26300
H1690       H  0.46359594  0.04117858  0.67785336     0.26300
N1691       N  0.02150205  0.74112333  0.64544738    -0.36500
N1692       N  0.47161091  0.70659592  0.64643122    -0.57100
N1693       N  0.47458973  0.70843508  0.68700521    -0.36500
N1694       N  0.02313301  0.74159521  0.68610453    -0.57100
C1695       C  0.01996512  0.73228401  0.62783388     0.27100
C1696       C  0.04927139  0.74658762  0.64899821     0.27100
C1697       C  0.45416274  0.68905078  0.68383412     0.27100
C1698       C  0.48185097  0.70664501  0.70490103     0.27100
C1699       C  0.47072163  0.71451369  0.62864356     0.35700
C1700       C  0.44472078  0.69921864  0.65091347     0.35700
C1701       C  0.04426491  0.75957548  0.68189415     0.35700
C1702       C  0.01813568  0.74444360  0.70416107     0.35700
C1703       C  0.04685292  0.73326557  0.61989240    -0.21800
C1704       C  0.06548425  0.74168448  0.63336554    -0.21800
C1705       C  0.44837192  0.67429568  0.69984408    -0.21800
C1706       C  0.46618906  0.68517690  0.71314450    -0.21800
C1707       C  0.44353191  0.71090510  0.62154020    -0.22800
C1708       C  0.42686271  0.70169949  0.63576035    -0.22800
C1709       C  0.05296320  0.77421530  0.69743126    -0.22800
C1710       C  0.03604767  0.76490131  0.71155813    -0.22800
C1711       C  0.49463044  0.72422441  0.61883252    -0.18200
C1712       C  0.06026057  0.75690331  0.66574511    -0.18200
C1713       C  0.49995701  0.72610891  0.71408657    -0.18200
C1714       C  0.43604645  0.69021567  0.66847808    -0.18200
H1715       H  0.05264054  0.72803030  0.60596185     0.14700
H1716       H  0.08831988  0.74441756  0.63170887     0.14700
H1717       H  0.43176442  0.65865152  0.70192932     0.14700
H1718       H  0.46634838  0.67921077  0.72742968     0.14700
H1719       H  0.43634059  0.71507124  0.60771551     0.13000
H1720       H  0.40421288  0.69722081  0.63498530     0.13000
H1721       H  0.07070338  0.78882171  0.69859800     0.13000
H1722       H  0.03784339  0.77122745  0.72574196     0.13000
H1723       H  0.00428764  0.74538556  0.65413341     0.26300
H1724       H  0.47854501  0.72547386  0.67821870     0.26300
N1725       N  0.20353550  0.51957820  0.64757218    -0.36500
N1726       N  0.20112980  0.51033151  0.68736828    -0.57100
N1727       N  0.25874021  0.48706168  0.68706313    -0.36500
N1728       N  0.26143676  0.49890190  0.64728889    -0.57100
C1729       C  0.17909678  0.53425644  0.65162281     0.27100
C1730       C  0.21040138  0.52600143  0.63009101     0.27100
C1731       C  0.25443272  0.48979784  0.70529878     0.27100
C1732       C  0.28739164  0.48653216  0.68438876     0.27100
C1733       C  0.17364301  0.51846414  0.68419975     0.35700
C1734       C  0.20210299  0.49997887  0.70463177     0.35700
C1735       C  0.25782755  0.50087053  0.62898460     0.35700
C1736       C  0.28798842  0.48778301  0.65010043     0.35700
C1737       C  0.17006355  0.54989302  0.63642449    -0.21800
C1738       C  0.18980115  0.54463721  0.62284269    -0.21800
C1739       C  0.28055704  0.48958527  0.71431957    -0.21800
C1740       C  0.30132944  0.48740789  0.70116565    -0.21800
C1741       C  0.15713370  0.51342408  0.69959048    -0.22800
C1742       C  0.17512140  0.50147801  0.71245989    -0.22800
C1743       C  0.28212019  0.49062460  0.62008522    -0.22800
C1744       C  0.30140710  0.48277970  0.63345600    -0.22800
C1745       C  0.16342333  0.53201227  0.66807779    -0.18200
C1746       C  0.23416628  0.51460324  0.62029634    -0.18200
C1747       C  0.30165283  0.48600470  0.66732264    -0.18200
C1748       C  0.22759038  0.49257947  0.71411518    -0.18200
H1749       H  0.15093282  0.56331180  0.63509760     0.14700
H1750       H  0.18895950  0.55342097  0.60916099     0.14700
H1751       H  0.28433936  0.49144146  0.72885926     0.14700
H1752       H  0.32419497  0.48710059  0.70370538     0.14700
H1753       H  0.13454544  0.51824368  0.70149686     0.13000
H1754       H  0.16921927  0.49551960  0.72621690     0.13000
H1755       H  0.28606359  0.49016296  0.60552395     0.13000
H1756       H  0.32310122  0.47499316  0.63113409     0.13000
H1757       H  0.21285098  0.50349745  0.65554866     0.26300
H1758       H  0.24317881  0.48416436  0.67711776     0.26300
N1759       N  0.22294420  0.74201450  0.64826823    -0.36500
N1760       N  0.22240303  0.74491298  0.68869193    -0.57100
N1761       N  0.27619327  0.71794848  0.68985729    -0.36500
N1762       N  0.27711988  0.71321507  0.64934148    -0.57100
C1763       C  0.19466560  0.74489737  0.65178619     0.27100
C1764       C  0.22555176  0.73357575  0.63061851     0.27100
C1765       C  0.26907739  0.71612440  0.70774181     0.27100
C1766       C  0.29776161  0.69886566  0.68688896     0.27100
C1767       C  0.19774250  0.75885060  0.68471021     0.35700
C1768       C  0.22734999  0.74924326  0.70662900     0.35700
C1769       C  0.27666567  0.71986883  0.63134471     0.35700
C1770       C  0.30455808  0.70627155  0.65343892     0.35700
C1771       C  0.17915669  0.73863386  0.63608090    -0.21800
C1772       C  0.19873930  0.73195163  0.62262742    -0.21800
C1773       C  0.28639874  0.69555814  0.71623862    -0.21800
C1774       C  0.30472329  0.68477768  0.70304884    -0.21800
C1775       C  0.18692406  0.77254002  0.70017318    -0.22800
C1776       C  0.20597634  0.76672406  0.71408507    -0.22800
C1777       C  0.30364351  0.71614200  0.62381356    -0.22800
C1778       C  0.32143752  0.70771558  0.63786279    -0.22800
C1779       C  0.18246461  0.75459475  0.66842882    -0.18200
C1780       C  0.25171536  0.72789234  0.62159150    -0.18200
C1781       C  0.31450709  0.69800130  0.67094240    -0.18200
C1782       C  0.24836270  0.73378100  0.71660390    -0.18200
H1783       H  0.15610040  0.73928148  0.63437510     0.14700
H1784       H  0.19378824  0.72604446  0.60868344     0.14700
H1785       H  0.28633716  0.68952653  0.73051327     0.14700
H1786       H  0.32189659  0.66909879  0.70518923     0.14700
H1787       H  0.16674109  0.78428037  0.70145743     0.13000
H1788       H  0.20342420  0.77301471  0.72824138     0.13000
H1789       H  0.30983980  0.71930081  0.60973049     0.13000
H1790       H  0.34419169  0.70310379  0.63670434     0.13000
H1791       H  0.23952009  0.74804309  0.65690127     0.26300
H1792       H  0.27018752  0.73424741  0.68080297     0.26300
C1793       C  0.38894887  0.66562398  0.66706600    -0.01700
C1794       C  0.40512489  0.68963404  0.67209115     0.07900
C1795       C  0.39163571  0.71502469  0.67875097    -0.01900
C1796       C  0.36179923  0.71707813  0.67918195    -0.01900
C1797       C  0.34552428  0.69351334  0.67333532     0.08100
C1798       C  0.35895083  0.66745173  0.66791230    -0.02000
Br1799     Br  0.33612134  0.63511968  0.66079330    -0.00600
Br1800     Br  0.40799200  0.63134938  0.65785442    -0.00700
Br1801     Br  0.34332197  0.75320778  0.68617672    -0.00600
Br1802     Br  0.41378761  0.74812812  0.68575821    -0.00600
C1803       C  0.10602749  0.73355421  0.67502190    -0.01700
C1804       C  0.09154153  0.75792656  0.66775293     0.07900
C1805       C  0.10673919  0.78213707  0.66196804    -0.01900
C1806       C  0.13671648  0.78167357  0.66301978    -0.01900
C1807       C  0.15112732  0.75681706  0.66946218     0.08100
C1808       C  0.13588976  0.73301689  0.67591921    -0.02000
Br1809     Br  0.15591443  0.69938332  0.68552947    -0.00600
Br1810     Br  0.08503481  0.70034050  0.68301881    -0.00700
Br1811     Br  0.15831527  0.81473959  0.65573110    -0.00600
Br1812     Br  0.08652496  0.81529613  0.65221711    -0.00600
C1813       C  0.37356391  0.52104025  0.67165766    -0.01700
C1814       C  0.39229180  0.99825438  0.66686042     0.07900
C1815       C  0.38153712  0.97075624  0.66291559    -0.01900
C1816       C  0.35190096  0.96615423  0.66409064    -0.01900
C1817       C  0.33310430  0.48947411  0.66762420     0.08100
C1818       C  0.34398329  0.51700680  0.67147609    -0.02000
Br1819     Br  0.31837439  0.54941726  0.67642161    -0.00600
Br1820     Br  0.38852499  0.55841374  0.67790417    -0.00700
Br1821     Br  0.33692644  0.92795255  0.66112735    -0.00600
Br1822     Br  0.40717120  0.94007069  0.65517047    -0.00600
C1823       C  0.09912274  0.58326374  0.67041993    -0.01700
C1824       C  0.07670044  0.06376700  0.66862754     0.07900
C1825       C  0.08275965  0.03388590  0.66696121    -0.01900
C1826       C  0.11114253  0.02399712  0.66561562    -0.01900
C1827       C  0.13356742  0.54327354  0.66813440     0.08100
C1828       C  0.12763065  0.57289058  0.67097104    -0.02000
Br1829     Br  0.15859293  0.59904757  0.67524945    -0.00600
Br1830     Br  0.09085224  0.62403305  0.67154075    -0.00700
Br1831     Br  0.11934512  0.98411877  0.65951954    -0.00600
Br1832     Br  0.05218761  0.00625736  0.66654988    -0.00600
C1833       C  0.22464989  0.71783344  0.76524900    -0.01700
C1834       C  0.24355874  0.73488594  0.77544777     0.07900
C1835       C  0.26391422  0.75176266  0.76638441    -0.01900
C1836       C  0.26608751  0.75072751  0.74720780    -0.01900
C1837       C  0.24692578  0.73394458  0.73696026     0.08100
C1838       C  0.22598657  0.71773383  0.74604374    -0.02000
Br1839     Br  0.19914908  0.69531307  0.73216299    -0.00600
Br1840     Br  0.19689353  0.69469691  0.77770944    -0.00700
Br1841     Br  0.29525923  0.77231626  0.73494461    -0.00600
Br1842     Br  0.28831207  0.77675661  0.78032686    -0.00600
C1843       C  0.22247221  0.87903528  0.83227978    -0.01700
C1844       C  0.19698136  0.89250416  0.83862943     0.07900
C1845       C  0.17385431  0.87582901  0.84449426    -0.01900
C1846       C  0.17676898  0.84563237  0.84488190    -0.01900
C1847       C  0.20246916  0.83236241  0.83897410     0.08100
C1848       C  0.22500291  0.84896822  0.83215555    -0.02000
Br1849     Br  0.26014521  0.83061382  0.82364985    -0.00600
Br1850     Br  0.25514027  0.90160928  0.82529016    -0.00700
Br1851     Br  0.14652202  0.82228638  0.85435676    -0.00600
Br1852     Br  0.13918882  0.89446571  0.85304872    -0.00600
C1853       C  0.24663806  0.59772493  0.83571083    -0.01700
C1854       C  0.27137267  0.58039885  0.83849617     0.07900
C1855       C  0.29798355  0.59305222  0.84213763    -0.01900
C1856       C  0.29949317  0.62320434  0.84401853    -0.01900
C1857       C  0.27449938  0.64034043  0.84177581     0.08100
C1858       C  0.24822766  0.62763927  0.83724316    -0.02000
Br1859     Br  0.21390589  0.65120115  0.83390410    -0.00600
Br1860     Br  0.21000388  0.58028764  0.83096824    -0.00700
Br1861     Br  0.33514493  0.64102041  0.85028147    -0.00600
Br1862     Br  0.33183726  0.56898057  0.84482741    -0.00600
C1863       C  0.21871850  0.51343795  0.76420083    -0.01700
C1864       C  0.22777653  0.48789374  0.77317883     0.07900
C1865       C  0.23582007  0.96326278  0.76262081    -0.01900
C1866       C  0.23360023  0.96420031  0.74341806    -0.01900
C1867       C  0.22683418  0.49063105  0.73452847     0.08100
C1868       C  0.22064696  0.51547776  0.74509278    -0.02000
Br1869     Br  0.21725659  0.55288319  0.73362848    -0.00600
Br1870     Br  0.20264203  0.54542468  0.77794834    -0.00700
Br1871     Br  0.23982172  0.92947698  0.72924985    -0.00600
Br1872     Br  0.25097311  0.92885057  0.77424698    -0.00600
C1873       C  0.47834760  0.74141346  0.76355424    -0.01700
C1874       C  0.50364135  0.73351161  0.77299168     0.07900
C1875       C  0.02668908  0.72104040  0.76322869     0.00500
C1876       C  0.02459722  0.71667750  0.74420907    -0.01900
C1877       C  0.50045931  0.72702580  0.73455268     0.08100
C1878       C  0.47722791  0.73940709  0.74434682    -0.02000
Br1879     Br  0.44437010  0.75493545  0.73148983    -0.00600
Br1880     Br  0.44516443  0.75468353  0.77704748    -0.00700
Br1881     Br  0.05445060  0.69547293  0.73151642    -0.00600
Br1882     Br  0.06129077  0.70988551  0.77604823    -0.00600
C1883       C  0.06786824  0.88702682  0.82266581    -0.01700
C1884       C  0.04350157  0.90151963  0.82969328     0.07900
C1885       C  0.52116148  0.88600096  0.83783383    -0.01900
C1886       C  0.52392578  0.85615976  0.83988943    -0.01900
C1887       C  0.04835958  0.84146299  0.83288877     0.08100
C1888       C  0.07025890  0.85681414  0.82418051    -0.02000
Br1889     Br  0.10294491  0.83641449  0.81410650    -0.00600
Br1890     Br  0.09728466  0.90862678  0.81070373    -0.00700
Br1891     Br  0.49381053  0.83551175  0.85207218    -0.00600
Br1892     Br  0.48634755  0.90573842  0.84564513    -0.00600
C1893       C  0.00493909  0.64156416  0.85651989    -0.01700
C1894       C  0.97859928  0.65565124  0.85252676     0.07900
C1895       C  0.45370064  0.63975916  0.84965597    -0.01900
C1896       C  0.45574422  0.60956687  0.84868654    -0.01900
C1897       C  0.98250317  0.59570706  0.85117529     0.08100
C1898       C  0.00673110  0.61151342  0.85616660    -0.02000
Br1899     Br  0.04299369  0.59211618  0.86105715    -0.00600
Br1900     Br  0.03947436  0.66328247  0.86032636    -0.00700
Br1901     Br  0.42255320  0.58714540  0.84296216    -0.00600
Br1902     Br  0.41758299  0.65954501  0.84561209    -0.00600
C1903       C  0.46983695  0.53105789  0.74549582    -0.01700
C1904       C  0.49269908  0.02644207  0.73292161     0.07900
C1905       C  0.01958457  0.01625606  0.73961591    -0.01900
C1906       C  0.02402631  0.01247817  0.75856658    -0.01900
C1907       C  0.50078001  0.01514894  0.77089441     0.08100
C1908       C  0.47343011  0.52386948  0.76412314    -0.02000
Br1909     Br  0.44070565  0.52508793  0.78020915    -0.00600
Br1910     Br  0.43402988  0.54824834  0.73734299    -0.00700
Br1911     Br  0.06236568  0.00556865  0.76772550    -0.00600
Br1912     Br  0.05032093  0.00654571  0.72290205    -0.00600
C1913       C  0.20601425  0.73347548  0.93876755    -0.01700
C1914       C  0.22953830  0.74282627  0.94958256     0.07900
C1915       C  0.25502274  0.75102088  0.94044041    -0.01900
C1916       C  0.25775011  0.74750218  0.92137849    -0.01900
C1917       C  0.23453885  0.73797399  0.91087459     0.08100
C1918       C  0.20848252  0.73169495  0.91953806    -0.02000
Br1919     Br  0.17595631  0.72106307  0.90476410    -0.00600
Br1920     Br  0.16999307  0.72271880  0.94960354    -0.00700
Br1921     Br  0.29314276  0.75683419  0.90927226    -0.00600
Br1922     Br  0.28558835  0.77023227  0.95320055    -0.00600
C1923       C  0.21058075  0.85512265  0.99382051    -0.01700
C1924       C  0.22927460  0.83859851  0.00526721     0.07900
C1925       C  0.24848504  0.85449186  0.01641041    -0.01900
C1926       C  0.24875498  0.88552161  0.01618273    -0.01900
C1927       C  0.22955182  0.90204682  0.00499216     0.08100
C1928       C  0.21045757  0.88607289  0.99384980    -0.02000
Br1929     Br  0.18456473  0.90651778  0.97761902    -0.00600
Br1930     Br  0.18614486  0.83530296  0.97681056    -0.00700
Br1931     Br  0.27466602  0.90534999  0.03225548    -0.00600
Br1932     Br  0.27369342  0.83385739  0.03300075    -0.00600
C1933       C  0.20157332  0.60561942  0.99784337    -0.01700
C1934       C  0.22418925  0.58865295  0.00588938     0.07900
C1935       C  0.24554676  0.60454324  0.01535387    -0.01900
C1936       C  0.24452948  0.63549854  0.01656436    -0.01900
C1937       C  0.22305564  0.65251022  0.00752410     0.08100
C1938       C  0.20121912  0.63670655  0.99842954    -0.02000
Br1939     Br  0.17040205  0.65732150  0.98613048    -0.00600
Br1940     Br  0.17075306  0.58671129  0.98523011    -0.00700
Br1941     Br  0.27148721  0.65425394  0.03250932    -0.00600
Br1942     Br  0.27626442  0.58421083  0.02781599    -0.00600
C1943       C  0.20657723  0.00429589  0.91795443    -0.01700
C1944       C  0.22886113  0.48957279  0.90885874     0.07900
C1945       C  0.25126815  0.47672916  0.91904703    -0.01900
C1946       C  0.25118590  0.47827882  0.93830710    -0.01900
C1947       C  0.22848510  0.49293596  0.94767801     0.08100
C1948       C  0.20639618  0.00619366  0.93719724    -0.02000
Br1949     Br  0.17633041  0.02891108  0.94868553    -0.00600
Br1950     Br  0.17641604  0.02273655  0.90378089    -0.00700
Br1951     Br  0.28220437  0.45919297  0.95135263    -0.00600
Br1952     Br  0.28214697  0.45686090  0.90633189    -0.00600
C1953       C  0.52198645  0.77099625  0.93749784    -0.01700
C1954       C  0.04089988  0.75023714  0.94537757     0.07900
C1955       C  0.05788753  0.73244150  0.93378979    -0.01900
C1956       C  0.05455366  0.73414708  0.91460601    -0.01900
C1957       C  0.03451839  0.75379974  0.90681493     0.08100
C1958       C  0.51850034  0.77240709  0.91837677    -0.02000
Br1959     Br  0.49043125  0.79864217  0.90788203    -0.00600
Br1960     Br  0.50147628  0.79844975  0.95275079    -0.00700
Br1961     Br  0.07620216  0.70835262  0.89893013    -0.00600
Br1962     Br  0.08453323  0.70443640  0.94403195    -0.00600
C1963       C  0.05628432  0.88281399  0.99004352    -0.01700
C1964       C  0.03754998  0.89972605  0.00128489     0.07900
C1965       C  0.51905682  0.88400927  0.01296626    -0.01900
C1966       C  0.51911724  0.85296738  0.01325754    -0.01900
C1967       C  0.03861800  0.83609865  0.00246221     0.08100
C1968       C  0.05706062  0.85181587  0.99078443    -0.02000
Br1969     Br  0.08244262  0.83081582  0.97451532    -0.00600
Br1970     Br  0.07990415  0.90200886  0.97238816    -0.00700
Br1971     Br  0.49254816  0.83370440  0.02906125    -0.00600
Br1972     Br  0.49462796  0.90493579  0.02973635    -0.00600
C1973       C  0.52353747  0.63404052  0.98863765    -0.01700
C1974       C  0.04250294  0.64971062  0.00007595     0.07900
C1975       C  0.06080295  0.63284247  0.01162401    -0.01900
C1976       C  0.06001461  0.60184662  0.01185376    -0.01900
C1977       C  0.04083765  0.58618271  0.00054744     0.08100
C1978       C  0.52255896  0.60306737  0.98896994    -0.02000
Br1979     Br  0.49661765  0.58377470  0.97266026    -0.00600
Br1980     Br  0.49989449  0.65493507  0.97129111    -0.00700
Br1981     Br  0.08424910  0.58102031  0.02889472    -0.00600
Br1982     Br  0.08624066  0.65218036  0.02818426    -0.00600
C1983       C  0.51732411  0.96691030  0.91624156    -0.01700
C1984       C  0.03068101  0.98753941  0.90509277     0.07900
C1985       C  0.04808724  0.50849613  0.91345171    -0.01900
C1986       C  0.05057978  0.51010507  0.93268593    -0.01900
C1987       C  0.03665998  0.98998378  0.94381227     0.08100
C1988       C  0.52035465  0.96805474  0.93545693    -0.02000
Br1989     Br  0.50224475  0.93924654  0.95031160    -0.00600
Br1990     Br  0.49439633  0.93742003  0.90513879    -0.00700
Br1991     Br  0.07094879  0.54161374  0.94358314    -0.00600
Br1992     Br  0.06845941  0.53513878  0.89822523    -0.00600
C1993       C  0.25992779  0.75742588  0.57329472    -0.01700
C1994       C  0.25204701  0.73339074  0.56229757     0.07900
C1995       C  0.24544051  0.70706884  0.57133929    -0.01900
C1996       C  0.24718920  0.70499211  0.59054943    -0.01900
C1997       C  0.25261372  0.72952340  0.60119916     0.08100
C1998       C  0.25881167  0.75573052  0.59255215    -0.02000
Br1999     Br  0.26630227  0.78928907  0.60740602    -0.00600
Br2000     Br  0.27470836  0.79236867  0.56275570    -0.00700
Br2001     Br  0.24258716  0.66826283  0.60254451    -0.00600
Br2002     Br  0.23248000  0.67341023  0.55825527    -0.00600
C2003       C  0.24585287  0.54583129  0.57258887    -0.01700
C2004       C  0.23417606  0.52406959  0.56116056     0.07900
C2005       C  0.22358795  0.99871578  0.56962948    -0.01900
C2006       C  0.22308188  0.99620255  0.58884455    -0.01900
C2007       C  0.23451841  0.51792721  0.59994473     0.08100
C2008       C  0.24631102  0.54246574  0.59179408    -0.02000
Br2009     Br  0.26326487  0.57139486  0.60723393    -0.00600
Br2010     Br  0.26300316  0.57986788  0.56243607    -0.00700
Br2011     Br  0.20632902  0.96295579  0.60027774    -0.00600
Br2012     Br  0.20937005  0.96670060  0.55554322    -0.00600
C2013       C  0.38997380  0.75697528  0.49237120    -0.01700
C2014       C  0.40689372  0.73999166  0.50463170     0.07900
C2015       C  0.39152265  0.72276412  0.51725172    -0.01900
C2016       C  0.36070089  0.72244339  0.51749723    -0.01900
C2017       C  0.34383459  0.73945085  0.50522932     0.08100
C2018       C  0.35916657  0.75657499  0.49257650    -0.02000
Br2019     Br  0.33789467  0.77797509  0.47431337    -0.00600
Br2020     Br  0.40919810  0.77989970  0.47438006    -0.00700
Br2021     Br  0.34135037  0.69918977  0.53530991    -0.00600
Br2022     Br  0.41270507  0.70051809  0.53513938    -0.00600
C2023       C  0.14075063  0.76344604  0.50067969    -0.01700
C2024       C  0.15753323  0.73797093  0.50472836     0.07900
C2025       C  0.14105526  0.71301611  0.50890517    -0.01900
C2026       C  0.11002474  0.71354247  0.50892440    -0.01900
C2027       C  0.09336616  0.73864262  0.50398868     0.08100
C2028       C  0.10980557  0.76357931  0.49993144    -0.02000
Br2029     Br  0.09034143  0.79891011  0.49260986    -0.00600
Br2030     Br  0.15953270  0.79951310  0.49596604    -0.00700
Br2031     Br  0.09064263  0.67954778  0.51730482    -0.00600
Br2032     Br  0.16050986  0.67738678  0.51565946    -0.00600
C2033       C  0.50936504  0.70662195  0.56882936    -0.01700
C2034       C  0.49764036  0.73130895  0.55983358     0.07900
C2035       C  0.98362937  0.75303274  0.57049278    -0.01900
C2036       C  0.98176984  0.75008588  0.58963336    -0.01900
C2037       C  0.49367282  0.72562007  0.59843650     0.08100
C2038       C  0.50664014  0.70355013  0.58791043    -0.02000
Br2039     Br  0.52113494  0.66912537  0.59990687    -0.00600
Br2040     Br  0.53173801  0.67783078  0.55572565    -0.00700
Br2041     Br  0.96266957  0.77964718  0.60406241    -0.00600
Br2042     Br  0.96646856  0.78725259  0.55954011    -0.00600
C2043       C  0.37344853  0.51327702  0.51193881    -0.01700
C2044       C  0.38919885  0.03499966  0.50249531     0.07900
C2045       C  0.37204556  0.05752042  0.49439927    -0.01900
C2046       C  0.34117982  0.05815828  0.49554906    -0.01900
C2047       C  0.32560395  0.03582789  0.50423136     0.08100
C2048       C  0.34260310  0.51382128  0.51281068    -0.02000
Br2049     Br  0.32379831  0.48540159  0.52759233    -0.00600
Br2050     Br  0.39387613  0.48287277  0.52482815    -0.00700
Br2051     Br  0.32038211  0.09037281  0.48497504    -0.00600
Br2052     Br  0.39025392  0.08753351  0.48064341    -0.00600
C2053       C  0.09202907  0.54909672  0.49099761    -0.01700
C2054       C  0.07582726  0.03007513  0.50205594     0.07900
C2055       C  0.09241053  0.01046086  0.51305185    -0.01900
C2056       C  0.12333623  0.01034570  0.51319362    -0.01900
C2057       C  0.13943460  0.03031038  0.50280610     0.08100
C2058       C  0.12293165  0.54933164  0.49144566    -0.02000
Br2059     Br  0.14288494  0.57454661  0.47505518    -0.00600
Br2060     Br  0.07214627  0.57416314  0.47394915    -0.00700
Br2061     Br  0.14373157  0.98275363  0.52826952    -0.00600
Br2062     Br  0.07306653  0.98418874  0.52903544    -0.00600
C2063       C  0.99078631  0.01913532  0.57005834    -0.01700
C2064       C  0.48192829  0.04263942  0.55862960     0.07900
C2065       C  0.47265818  0.56867118  0.56728846    -0.01900
C2066       C  0.47193415  0.57092035  0.58659549    -0.01900
C2067       C  0.48087939  0.04774364  0.59760272     0.08100
C2068       C  0.99032480  0.02187988  0.58927854    -0.02000
Br2069     Br  0.00312433  0.99012952  0.60458115    -0.00600
Br2070     Br  0.00487913  0.98278750  0.56017839    -0.00700
Br2071     Br  0.45799888  0.60584342  0.59830631    -0.00600
Br2072     Br  0.45993206  0.60193028  0.55334512    -0.00600
C2073       C  0.28257770  0.72943914  0.42055109    -0.01700
C2074       C  0.26396576  0.74766691  0.41044717     0.07900
C2075       C  0.24268242  0.76404505  0.41961846    -0.01900
C2076       C  0.23920346  0.76150611  0.43864713    -0.01900
C2077       C  0.25712001  0.74255496  0.44881499     0.08100
C2078       C  0.27888261  0.72642568  0.43961817    -0.02000
Br2079     Br  0.30393532  0.70023126  0.45291723    -0.00600
Br2080     Br  0.31318460  0.70883226  0.40814570    -0.00700
Br2081     Br  0.20815793  0.78241167  0.45042868    -0.00600
Br2082     Br  0.21793757  0.78985581  0.40585686    -0.00600
C2083       C  0.21346927  0.02039102  0.43773234    -0.01700
C2084       C  0.23012070  0.04023999  0.44771865     0.07900
C2085       C  0.24627536  0.06070631  0.43797905    -0.01900
C2086       C  0.24814514  0.05923337  0.41874906    -0.01900
C2087       C  0.23238315  0.03872054  0.40893815     0.08100
C2088       C  0.21479383  0.01954238  0.41849081    -0.02000
Br2089     Br  0.19312788  0.99141505  0.40516371    -0.00600
Br2090     Br  0.18675057  0.99585634  0.45018402    -0.00700
Br2091     Br  0.27325801  0.08459471  0.40572128    -0.00600
Br2092     Br  0.26546446  0.59139602  0.45051979    -0.00600
C2093       C  0.01476339  0.76905060  0.43762577    -0.01700
C2094       C  0.49676544  0.74942424  0.44683755     0.07900
C2095       C  0.47715315  0.73313922  0.43643159    -0.01900
C2096       C  0.47624870  0.73570948  0.41722144    -0.01900
C2097       C  0.49576563  0.75346965  0.40812760     0.08100
C2098       C  0.01472219  0.77046749  0.41836474    -0.02000
Br2099     Br  0.04108310  0.79520124  0.40580861    -0.00600
Br2100     Br  0.04051949  0.79328777  0.45109355    -0.00700
Br2101     Br  0.44835017  0.71479125  0.40320607    -0.00600
Br2102     Br  0.45069129  0.70778846  0.44833514    -0.00600
C2103       C  0.39373649  0.80627580  0.33361315    -0.01700
C2104       C  0.40818222  0.77954892  0.33569755     0.07900
C2105       C  0.39292324  0.75411109  0.33874974    -0.01900
C2106       C  0.36311480  0.75545422  0.33999241    -0.01900
C2107       C  0.34859425  0.78222042  0.33809161     0.08100
C2108       C  0.36373064  0.80761255  0.33478642    -0.02000
Br2109     Br  0.34326056  0.84384866  0.33205550    -0.00600
Br2110     Br  0.41522130  0.84076681  0.32957355    -0.00700
Br2111     Br  0.34210644  0.72052312  0.34431869    -0.00600
Br2112     Br  0.41294618  0.71739171  0.34139500    -0.00600
C2113       C  0.11616832  0.69203818  0.34709911    -0.01700
C2114       C  0.10237755  0.71884821  0.34996877     0.07900
C2115       C  0.11789321  0.74317543  0.35525076    -0.01900
C2116       C  0.14770778  0.74128155  0.35607574    -0.01900
C2117       C  0.16177492  0.71498523  0.35172906     0.08100
C2118       C  0.14613551  0.68996572  0.34827294    -0.02000
Br2119     Br  0.16610613  0.65382790  0.34419012    -0.00600
Br2120     Br  0.09379170  0.65926936  0.34035182    -0.00700
Br2121     Br  0.16939685  0.77552849  0.36117425    -0.00600
Br2122     Br  0.09841541  0.77976914  0.35954284    -0.00600
C2123       C  0.00236780  0.99918808  0.43752913    -0.01700
C2124       C  0.48298905  0.01973418  0.44518482     0.07900
C2125       C  0.46319373  0.53409402  0.43347203    -0.01900
C2126       C  0.46305977  0.52819563  0.41450128    -0.01900
C2127       C  0.48171189  0.50691424  0.40711271     0.08100
C2128       C  0.00138740  0.99255779  0.41870206    -0.02000
Br2129     Br  0.02704442  0.96347630  0.40866892    -0.00600
Br2130     Br  0.03200377  0.98156947  0.45248963    -0.00700
Br2131     Br  0.43807569  0.55002695  0.39839055    -0.00600
Br2132     Br  0.43552973  0.56131712  0.44323446    -0.00600
C2133       C  0.35190460  0.51447073  0.34814812    -0.01700
C2134       C  0.33196605  0.99288969  0.34474378     0.07900
C2135       C  0.34076450  0.96506104  0.33909447    -0.01900
C2136       C  0.37004132  0.95862893  0.33709217    -0.01900
C2137       C  0.38982377  0.48053760  0.33982304     0.08100
C2138       C  0.38084081  0.50864611  0.34483736    -0.02000
Br2139     Br  0.40793726  0.53965357  0.34590899    -0.00600
Br2140     Br  0.33965538  0.55224956  0.35665785    -0.00700
Br2141     Br  0.38287284  0.92048762  0.33004107    -0.00600
Br2142     Br  0.31259073  0.93646652  0.33341903    -0.00600
C2143       C  0.11701805  0.56800668  0.33301381    -0.01700
C2144       C  0.13843321  0.05120093  0.34178297     0.07900
C2145       C  0.13123913  0.02513440  0.35046327    -0.01900
C2146       C  0.10276778  0.01677329  0.35100963    -0.01900
C2147       C  0.08192859  0.53262269  0.34149130     0.08100
C2148       C  0.08868955  0.55863396  0.33281764    -0.02000
Br2149     Br  0.05917840  0.58073356  0.32033914    -0.00600
Br2150     Br  0.12744183  0.60105294  0.31875732    -0.00700
Br2151     Br  0.09246455  0.98252953  0.36436021    -0.00600
Br2152     Br  0.16054863  0.99817034  0.35887543    -0.00600
C2153       C  0.19674881  0.77117546  0.09049378    -0.01700
C2154       C  0.21885476  0.76042421  0.10180111     0.07900
C2155       C  0.24323503  0.74712453  0.09391423    -0.01900
C2156       C  0.24499839  0.74316813  0.07483540    -0.01900
C2157       C  0.22263401  0.75360352  0.06322725     0.08100
C2158       C  0.19889182  0.76858060  0.07132340    -0.02000
Br2159     Br  0.16960726  0.78744605  0.05661019    -0.00600
Br2160     Br  0.16324589  0.78915409  0.10146585    -0.00700
Br2161     Br  0.27778178  0.72192336  0.06533557    -0.00600
Br2162     Br  0.27397237  0.73347542  0.10963993    -0.00600
C2163       C  0.21879150  0.77740622  0.24743500    -0.01700
C2164       C  0.23055895  0.75448488  0.23693573     0.07900
C2165       C  0.24589720  0.73196628  0.24577026    -0.01900
C2166       C  0.24947493  0.73238736  0.26489614    -0.01900
C2167       C  0.23875408  0.75587175  0.27529336     0.08100
C2168       C  0.22323859  0.77830991  0.26649450    -0.02000
Br2169     Br  0.20781763  0.81011793  0.28064242    -0.00600
Br2170     Br  0.19630421  0.80744726  0.23564437    -0.00700
Br2171     Br  0.26890342  0.70061637  0.27699255    -0.00600
Br2172     Br  0.26280794  0.70094915  0.23158680    -0.00600
C2173       C  0.20358120  0.98886406  0.09090717    -0.01700
C2174       C  0.22618072  0.50233835  0.10015602     0.07900
C2175       C  0.24984960  0.51212893  0.09027864    -0.01900
C2176       C  0.25072943  0.50932794  0.07111578    -0.01900
C2177       C  0.22751216  0.49672997  0.06149153     0.08100
C2178       C  0.20435035  0.98564963  0.07174021    -0.02000
Br2179     Br  0.17474209  0.96331756  0.06021683    -0.00600
Br2180     Br  0.17206240  0.97380586  0.10483084    -0.00700
Br2181     Br  0.28449710  0.52290280  0.05880584    -0.00600
Br2182     Br  0.28136101  0.52924760  0.10333833    -0.00600
C2183       C  0.28530535  0.86524514  0.16588208    -0.01700
C2184       C  0.25969113  0.85311364  0.17209658     0.07900
C2185       C  0.23745406  0.87070939  0.17919134    -0.01900
C2186       C  0.24026931  0.90063067  0.17931089    -0.01900
C2187       C  0.26567341  0.91295775  0.17275098     0.08100
C2188       C  0.28849816  0.89530589  0.16649341    -0.02000
Br2189     Br  0.32291020  0.91262918  0.15749505    -0.00600
Br2190     Br  0.31478329  0.84082449  0.15531999    -0.00700
Br2191     Br  0.20788157  0.92471658  0.18656028    -0.00600
Br2192     Br  0.20197172  0.85391258  0.18720876    -0.00600
C2193       C  0.16363117  0.61676293  0.16654597    -0.01700
C2194       C  0.18983865  0.60176950  0.16919080     0.07900
C2195       C  0.21513363  0.61693676  0.17277652    -0.01900
C2196       C  0.21434970  0.64707001  0.17343340    -0.01900
C2197       C  0.18822352  0.66220149  0.17064365     0.08100
C2198       C  0.16286035  0.64713650  0.16713614    -0.02000
Br2199     Br  0.12776956  0.66827712  0.16213589    -0.00600
Br2200     Br  0.12929255  0.59562880  0.16169663    -0.00700
Br2201     Br  0.24965306  0.66771190  0.17677029    -0.00600
Br2202     Br  0.25133809  0.59644125  0.17592916    -0.00600
C2203       C  0.24400049  0.54331024  0.26230726    -0.01700
C2204       C  0.23712265  0.01975482  0.27363464     0.07900
C2205       C  0.22921376  0.99329842  0.26575499    -0.01900
C2206       C  0.22764370  0.99045963  0.24661758    -0.01900
C2207       C  0.23524839  0.01374895  0.23524645     0.08100
C2208       C  0.24378970  0.54008722  0.24320978    -0.02000
Br2209     Br  0.25573707  0.57170612  0.22806480    -0.00600
Br2210     Br  0.25332750  0.57994776  0.27316027    -0.00700
Br2211     Br  0.21394077  0.95501596  0.23614308    -0.00600
Br2212     Br  0.21978023  0.96126237  0.28130883    -0.00600
C2213       C  0.51566948  0.74365318  0.08872292    -0.01700
C2214       C  0.04147981  0.73857762  0.09828075     0.07900
C2215       C  0.06660858  0.73182037  0.08847737    -0.01900
C2216       C  0.06619286  0.73035724  0.06916736    -0.01900
C2217       C  0.04068944  0.73739496  0.05916824     0.08100
C2218       C  0.51503034  0.74297370  0.06940504    -0.02000
Br2219     Br  0.47809440  0.74910580  0.05778938    -0.00600
Br2220     Br  0.48106175  0.75205831  0.10237529    -0.00700
Br2221     Br  0.10046226  0.71576733  0.05722192    -0.00600
Br2222     Br  0.10172860  0.72420445  0.10182351    -0.00600
C2223       C  0.51289161  0.77070981  0.26173800    -0.01700
C2224       C  0.51847900  0.74647524  0.27296069     0.07900
C2225       C  0.02905715  0.72068488  0.26482062    -0.01900
C2226       C  0.03553638  0.71972197  0.24600178    -0.01900
C2227       C  0.52862919  0.74344224  0.23464967     0.08100
C2228       C  0.51669328  0.76879329  0.24264513    -0.02000
Br2229     Br  0.50467701  0.80093127  0.22755790    -0.00600
Br2230     Br  0.50122445  0.80713493  0.27254961    -0.00700
Br2231     Br  0.05521110  0.68624722  0.23599392    -0.00600
Br2232     Br  0.03389152  0.68612033  0.27932443    -0.00600
C2233       C  0.05995361  0.99792572  0.06927675    -0.01700
C2234       C  0.03623231  0.49095111  0.05803217     0.07900
C2235       C  0.51033486  0.48242566  0.06677931    -0.01900
C2236       C  0.50842521  0.48145903  0.08599082    -0.01900
C2237       C  0.03167321  0.48954091  0.09693992     0.08100
C2238       C  0.05745843  0.99728153  0.08855795    -0.02000
Br2239     Br  0.08943776  0.00742808  0.10393534    -0.00600
Br2240     Br  0.09604463  0.00981683  0.05910693    -0.00700
Br2241     Br  0.47386439  0.46846489  0.09776357    -0.00600
Br2242     Br  0.47650425  0.47143645  0.05332548    -0.00600
C2243       C  0.08839058  0.85324802  0.16693513    -0.01700
C2244       C  0.06453593  0.83602374  0.17032761     0.07900
C2245       C  0.53749147  0.84872769  0.17420236    -0.01900
C2246       C  0.53413742  0.87872810  0.17412834    -0.01900
C2247       C  0.05782687  0.89608834  0.17014249     0.08100
C2248       C  0.08490659  0.88341357  0.16639747    -0.02000
Br2249     Br  0.11626503  0.90707555  0.15889572    -0.00600
Br2250     Br  0.12530878  0.83520209  0.16253910    -0.00700
Br2251     Br  0.49636220  0.89593813  0.17749690    -0.00600
Br2252     Br  0.50450164  0.82500615  0.17839855    -0.00600
C2253       C  0.01797135  0.62681948  0.17264542    -0.01700
C2254       C  0.99611043  0.64630710  0.16723664     0.07900
C2255       C  0.46947414  0.63623148  0.16124994    -0.01900
C2256       C  0.46544587  0.60640300  0.15925953    -0.01900
C2257       C  0.98731734  0.58694896  0.16471786     0.08100
C2258       C  0.01334073  0.59719825  0.17181696    -0.02000
Br2259     Br  0.04363832  0.57058651  0.17924772    -0.00600
Br2260     Br  0.05508437  0.64069404  0.17997944    -0.00700
Br2261     Br  0.43121795  0.59238995  0.14782715    -0.00600
Br2262     Br  0.43904985  0.66348872  0.15556301    -0.00600
C2263       C  0.48711503  0.96487249  0.25984550    -0.01700
C2264       C  0.49507108  0.48855951  0.27083029     0.07900
C2265       C  0.00540120  0.51354074  0.26205754    -0.01900
C2266       C  0.01016920  0.51367963  0.24298249    -0.01900
C2267       C  0.50116451  0.49041159  0.23197804     0.08100
C2268       C  0.48887177  0.96634133  0.24056155    -0.02000
Br2269     Br  0.47431591  0.93524030  0.22587580    -0.00600
Br2270     Br  0.47493027  0.92963288  0.27119340    -0.00700
Br2271     Br  0.03092854  0.54490167  0.23211792    -0.00600
Br2272     Br  0.01159287  0.54840461  0.27587824    -0.00600
N2273       N  0.50407239  0.01619546  0.14230113    -0.36500
N2274       N  0.53903782  0.46462315  0.14570488    -0.57100
N2275       N  0.02750861  0.46462067  0.18562288    -0.36500
N2276       N  0.99495549  0.01576579  0.18268445    -0.57100
C2277       C  0.51663179  0.01505609  0.12560254     0.27100
C2278       C  0.49689781  0.04411491  0.14555360     0.27100
C2279       C  0.04799562  0.44391291  0.18382371     0.27100
C2280       C  0.02582996  0.47160499  0.20360399     0.27100
C2281       C  0.53571062  0.46512006  0.12734623     0.35700
C2282       C  0.54643925  0.43720120  0.15001398     0.35700
C2283       C  0.97928101  0.03914105  0.17770509     0.35700
C2284       C  0.98949421  0.01081509  0.20054295     0.35700
C2285       C  0.51603789  0.04218340  0.11774901    -0.21800
C2286       C  0.50398554  0.06063286  0.13043536    -0.21800
C2287       C  0.05960264  0.43747773  0.20081135    -0.21800
C2288       C  0.04583605  0.45521449  0.21329231    -0.21800
C2289       C  0.54178248  0.43824111  0.11991052    -0.22800
C2290       C  0.54825473  0.42039130  0.13431559    -0.22800
C2291       C  0.96342521  0.04914329  0.19251323    -0.22800
C2292       C  0.96947798  0.03086327  0.20690374    -0.22800
C2293       C  0.52817240  0.98998364  0.11718669    -0.18200
C2294       C  0.48483967  0.05545555  0.16189846    -0.18200
C2295       C  0.00524366  0.99077510  0.21144949    -0.18200
C2296       C  0.55249499  0.42725995  0.16784993    -0.18200
H2297       H  0.52422233  0.04819816  0.10449622     0.14700
H2298       H  0.50092205  0.08368455  0.12872846     0.14700
H2299       H  0.07561101  0.42098331  0.20392158     0.14700
H2300       H  0.04943208  0.45529037  0.22789965     0.14700
H2301       H  0.54127548  0.43209471  0.10564732     0.13000
H2302       H  0.55390185  0.39768101  0.13330247     0.13000
H2303       H  0.95014341  0.06853706  0.19310727     0.13000
H2304       H  0.96154186  0.03324470  0.22071208     0.13000
H2305       H  0.49939473  0.99876902  0.15063735     0.26300
H2306       H  0.01263431  0.46978898  0.17550819     0.26300
N2307       N  0.55574461  0.26510470  0.14652404    -0.36500
N2308       N  0.05107624  0.26515405  0.18735693    -0.57100
N2309       N  0.02120149  0.21372598  0.18651823    -0.36500
N2310       N  0.52336425  0.21358693  0.14575989    -0.57100
C2311       C  0.56001432  0.29311314  0.15062635     0.27100
C2312       C  0.54930565  0.26373924  0.12845564     0.27100
C2313       C  0.01616720  0.22155838  0.20410746     0.27100
C2314       C  0.00217087  0.19340165  0.18210196     0.27100
C2315       C  0.06762920  0.28803198  0.18433595     0.35700
C2316       C  0.05178763  0.25995841  0.20550836     0.35700
C2317       C  0.53192248  0.21387434  0.12808658     0.35700
C2318       C  0.51447137  0.18657801  0.14909155     0.35700
C2319       C  0.55739668  0.30955096  0.13481386    -0.21800
C2320       C  0.55105101  0.29090571  0.12077851    -0.21800
C2321       C  0.99351973  0.20588949  0.21088892    -0.21800
C2322       C  0.98496218  0.18777340  0.19704596    -0.21800
C2323       C  0.07940033  0.29736641  0.20067568    -0.22800
C2324       C  0.06983218  0.27913944  0.21408481    -0.22800
C2325       C  0.52776663  0.18725622  0.12004088    -0.22800
C2326       C  0.51694447  0.16983934  0.13339264    -0.22800
C2327       C  0.56632578  0.30436235  0.16818256    -0.18200
C2328       C  0.54157903  0.23854562  0.11886133    -0.18200
C2329       C  0.50299946  0.17699080  0.16584290    -0.18200
C2330       C  0.03275730  0.24119435  0.21435873    -0.18200
H2331       H  0.55979129  0.33263999  0.13349375     0.14700
H2332       H  0.54723920  0.29681126  0.10667246     0.14700
H2333       H  0.98462822  0.20679939  0.22452320     0.14700
H2334       H  0.96836054  0.17184789  0.19795261     0.14700
H2335       H  0.09225687  0.31627946  0.20279767     0.13000
H2336       H  0.07393779  0.28113545  0.22858059     0.13000
H2337       H  0.53209856  0.18106826  0.10603930     0.13000
H2338       H  0.51120302  0.14748109  0.13165241     0.13000
H2339       H  0.55854602  0.24779107  0.15541632     0.26300
H2340       H  0.03907812  0.21841398  0.17868046     0.26300
N2341       N  0.74695176  0.48099558  0.14780754    -0.36500
N2342       N  0.74937712  0.48451664  0.18801871    -0.57100
N2343       N  0.71370249  0.03391728  0.18718316    -0.36500
N2344       N  0.70898503  0.03117322  0.14716109    -0.57100
C2345       C  0.75506787  0.45375198  0.15223867     0.27100
C2346       C  0.73741500  0.48029473  0.13034375     0.27100
C2347       C  0.71281246  0.02820240  0.20529522     0.27100
C2348       C  0.69341867  0.05417837  0.18363793     0.27100
C2349       C  0.76768103  0.46239535  0.18481229     0.35700
C2350       C  0.75248233  0.49196932  0.20570073     0.35700
C2351       C  0.71559633  0.02934086  0.12920485     0.35700
C2352       C  0.70024891  0.05873076  0.15015132     0.35700
C2353       C  0.75155902  0.43582916  0.13719436    -0.21800
C2354       C  0.74097128  0.45272418  0.12328007    -0.21800
C2355       C  0.69102840  0.04465044  0.21328044    -0.21800
C2356       C  0.67913667  0.06149134  0.19961678    -0.21800
C2357       C  0.78285490  0.45562155  0.20056721    -0.22800
C2358       C  0.77370854  0.47491158  0.21376082    -0.22800
C2359       C  0.70987050  0.05539950  0.12060012    -0.22800
C2360       C  0.70052303  0.07420231  0.13395039    -0.22800
C2361       C  0.76545701  0.44441371  0.16945655    -0.18200
C2362       C  0.72612972  0.00410879  0.12051668    -0.18200
C2363       C  0.69213935  0.07016236  0.16733625    -0.18200
C2364       C  0.73356305  0.51120189  0.21488685    -0.18200
H2365       H  0.75623399  0.41291772  0.13623681     0.14700
H2366       H  0.73582813  0.44531949  0.10966272     0.14700
H2367       H  0.68546478  0.04570161  0.22761392     0.14700
H2368       H  0.66280460  0.07817341  0.20135303     0.14700
H2369       H  0.79787678  0.43779060  0.20251043     0.13000
H2370       H  0.78045047  0.47501466  0.22791038     0.13000
H2371       H  0.71276347  0.06048700  0.10630905     0.13000
H2372       H  0.69457482  0.09667499  0.13196542     0.13000
H2373       H  0.74935809  0.49931888  0.15583621     0.26300
H2374       H  0.73038604  0.02879843  0.17830881     0.26300
N2375       N  0.73477399  0.28559334  0.14914188    -0.36500
N2376       N  0.74010517  0.28257153  0.18920712    -0.57100
N2377       N  0.70937693  0.23080509  0.18912123    -0.36500
N2378       N  0.70141708  0.23395489  0.14904379    -0.57100
C2379       C  0.74197872  0.31292196  0.15325928     0.27100
C2380       C  0.72492664  0.28567160  0.13173838     0.27100
C2381       C  0.70940747  0.23618784  0.20733031     0.27100
C2382       C  0.69091563  0.20936209  0.18600228     0.27100
C2383       C  0.75699919  0.30502513  0.18563812     0.35700
C2384       C  0.74462833  0.27538761  0.20684173     0.35700
C2385       C  0.70675307  0.23595714  0.13092297     0.35700
C2386       C  0.69454131  0.20619520  0.15207906     0.35700
C2387       C  0.73688915  0.33052406  0.13820288    -0.21800
C2388       C  0.72661869  0.31316292  0.12450453    -0.21800
C2389       C  0.69030518  0.21805655  0.21585470    -0.21800
C2390       C  0.67894579  0.20078651  0.20238566    -0.21800
C2391       C  0.77254431  0.31225239  0.20109115    -0.22800
C2392       C  0.76491141  0.29321412  0.21452302    -0.22800
C2393       C  0.70175336  0.20989405  0.12232659    -0.22800
C2394       C  0.69432843  0.19093366  0.13575830    -0.22800
C2395       C  0.75438160  0.32217277  0.16987598    -0.18200
C2396       C  0.71618182  0.26103879  0.12202804    -0.18200
C2397       C  0.68901373  0.19407718  0.16939102    -0.18200
C2398       C  0.72822091  0.25514171  0.21644441    -0.18200
H2399       H  0.74082385  0.35339123  0.13703264     0.14700
H2400       H  0.72094314  0.32004251  0.11083302     0.14700
H2401       H  0.68602839  0.21650391  0.23033936     0.14700
H2402       H  0.66435239  0.18321397  0.20444532     0.14700
H2403       H  0.78698088  0.33009438  0.20268045     0.13000
H2404       H  0.77243625  0.29332682  0.22851496     0.13000
H2405       H  0.70394299  0.20483127  0.10795620     0.13000
H2406       H  0.68960681  0.16837636  0.13373826     0.13000
H2407       H  0.73913174  0.26743562  0.15705371     0.26300
H2408       H  0.72437969  0.23752832  0.17967591     0.26300
N2409       N  0.51384232  0.00826485  0.35993774    -0.36500
N2410       N  0.95977903  0.98532720  0.35920962    -0.57100
N2411       N  0.96259313  0.97783767  0.31809279    -0.36500
N2412       N  0.51756393  0.00164502  0.31941576    -0.57100
C2413       C  0.50510066  0.01592549  0.37691488     0.27100
C2414       C  0.53531873  0.02573550  0.35548760     0.27100
C2415       C  0.93415386  0.97889898  0.32137642     0.27100
C2416       C  0.96639656  0.98449446  0.30017864     0.27100
C2417       C  0.96256057  0.98594047  0.37762242     0.35700
C2418       C  0.93524246  0.97188622  0.35544253     0.35700
C2419       C  0.54484413  0.00727422  0.32402254     0.35700
C2420       C  0.51815713  0.99161334  0.30203759     0.35700
C2421       C  0.52145434  0.03836801  0.38339383    -0.21800
C2422       C  0.54060107  0.04463917  0.36979542    -0.21800
C2423       C  0.91962095  0.98510395  0.30520728    -0.21800
C2424       C  0.93999737  0.98848522  0.29181925    -0.21800
C2425       C  0.93987111  0.97221604  0.38573788    -0.22800
C2426       C  0.92236318  0.96352880  0.37167569    -0.22800
C2427       C  0.56302107  0.00046502  0.30958084    -0.22800
C2428       C  0.54604291  0.99053064  0.29561463    -0.22800
C2429       C  0.98336301  0.00228164  0.38681094    -0.18200
C2430       C  0.55288612  0.02195348  0.34010045    -0.18200
C2431       C  0.99328130  0.98732576  0.29142058    -0.18200
C2432       C  0.92086066  0.97453623  0.33853178    -0.18200
H2433       H  0.51992764  0.04890245  0.39657030     0.14700
H2434       H  0.55713301  0.06067107  0.37055377     0.14700
H2435       H  0.89667197  0.98727962  0.30327443     0.14700
H2436       H  0.93588014  0.99399629  0.27768480     0.14700
H2437       H  0.93547040  0.97038083  0.40019303     0.13000
H2438       H  0.90153894  0.95393232  0.37322487     0.13000
H2439       H  0.58595252  0.00344994  0.30892695     0.13000
H2440       H  0.55320058  0.98431373  0.28209131     0.13000
H2441       H  0.50864815  0.98966634  0.35275209     0.26300
H2442       H  0.97828433  0.97148110  0.32747632     0.26300
N2443       N  0.52960567  0.23877194  0.36254044    -0.36500
N2444       N  0.97574996  0.26499423  0.35866988    -0.57100
N2445       N  0.98234602  0.26390577  0.31820808    -0.36500
N2446       N  0.53683779  0.23610682  0.32250237    -0.57100
C2447       C  0.52005294  0.23586689  0.37985095     0.27100
C2448       C  0.55269647  0.22127700  0.36071097     0.27100
C2449       C  0.95375560  0.26745845  0.32014325     0.27100
C2450       C  0.98718715  0.25404576  0.30099892     0.27100
C2451       C  0.97811333  0.26830906  0.37695672     0.35700
C2452       C  0.95246237  0.28030226  0.35340440     0.35700
C2453       C  0.56401353  0.23194112  0.32828994     0.35700
C2454       C  0.53855734  0.24392898  0.30476284     0.35700
C2455       C  0.53721286  0.21596111  0.38909625    -0.21800
C2456       C  0.55804975  0.20686657  0.37699045    -0.21800
C2457       C  0.94027479  0.26047276  0.30381196    -0.21800
C2458       C  0.96143023  0.25200700  0.29172582    -0.21800
C2459       C  0.95630663  0.28612808  0.38343975    -0.22800
C2460       C  0.93980049  0.29350819  0.36851407    -0.22800
C2461       C  0.58305477  0.23674777  0.31411804    -0.22800
C2462       C  0.56684849  0.24431397  0.29915420    -0.22800
C2463       C  0.99797949  0.25273914  0.38782850    -0.18200
C2464       C  0.57176347  0.22257255  0.34597153    -0.18200
C2465       C  0.01457284  0.24837079  0.29338900    -0.18200
C2466       C  0.93954210  0.27753593  0.33607814    -0.18200
H2467       H  0.53559370  0.20957020  0.40326268     0.14700
H2468       H  0.57585568  0.19233295  0.38003706     0.14700
H2469       H  0.91753119  0.26145381  0.30087000     0.14700
H2470       H  0.95825336  0.24519400  0.27773286     0.14700
H2471       H  0.95197844  0.29199043  0.39749537     0.13000
H2472       H  0.92004059  0.30610889  0.36887441     0.13000
H2473       H  0.60617736  0.23476211  0.31447338     0.13000
H2474       H  0.57488263  0.24929171  0.28568662     0.13000
H2475       H  0.52425114  0.25523980  0.35345811     0.26300
H2476       H  0.99770767  0.27026776  0.32763973     0.26300
N2477       N  0.70907011  0.54861696  0.35968867    -0.36500
N2478       N  0.70895812  0.54382904  0.31915102    -0.57100
N2479       N  0.76307139  0.51429826  0.32210822    -0.36500
N2480       N  0.76285713  0.52092023  0.36253929    -0.57100
C2481       C  0.68489027  0.56310820  0.35504669     0.27100
C2482       C  0.71356167  0.55265067  0.37780662     0.27100
C2483       C  0.76191055  0.51940330  0.30390700     0.27100
C2484       C  0.79086181  0.50980670  0.32643197     0.27100
C2485       C  0.68075099  0.54758879  0.32241306     0.35700
C2486       C  0.71084499  0.53249872  0.30214947     0.35700
C2487       C  0.75662852  0.52084711  0.38053368     0.35700
C2488       C  0.78624002  0.50397178  0.36029390     0.35700
C2489       C  0.67401812  0.57729580  0.37031795    -0.21800
C2490       C  0.69231344  0.57095230  0.38466536    -0.21800
C2491       C  0.78910874  0.51763173  0.29649193    -0.21800
C2492       C  0.80748689  0.51186419  0.31073765    -0.21800
C2493       C  0.66493244  0.53947034  0.30716850    -0.22800
C2494       C  0.68411720  0.53057947  0.29418105    -0.22800
C2495       C  0.77646082  0.50384169  0.38990757    -0.22800
C2496       C  0.79539179  0.49321304  0.37703709    -0.22800
C2497       C  0.66885265  0.55696912  0.33917983    -0.18200
C2498       C  0.73420786  0.53740545  0.38852221    -0.18200
C2499       C  0.80148762  0.50151617  0.34378488    -0.18200
C2500       C  0.73657669  0.52378436  0.29378877    -0.18200
H2501       H  0.65387365  0.58919278  0.37126180     0.14700
H2502       H  0.68921393  0.57743681  0.39874355     0.14700
H2503       H  0.79507148  0.52008911  0.28231023     0.14700
H2504       H  0.83047299  0.50884829  0.30955138     0.14700
H2505       H  0.64190352  0.53933685  0.30553572     0.13000
H2506       H  0.67889012  0.52237703  0.28075930     0.13000
H2507       H  0.77751960  0.50001075  0.40447348     0.13000
H2508       H  0.81412958  0.47972589  0.37971355     0.13000
H2509       H  0.71806017  0.53247006  0.35160960     0.26300
H2510       H  0.74576784  0.51059875  0.33067255     0.26300
N2511       N  0.73373682  0.23227702  0.36399726    -0.36500
N2512       N  0.72447296  0.23558272  0.32394590    -0.57100
N2513       N  0.77391362  0.27085171  0.32098069    -0.36500
N2514       N  0.78334992  0.26477743  0.36145185    -0.57100
C2515       C  0.71169954  0.21434409  0.36177935     0.27100
C2516       C  0.74320755  0.22914477  0.38138959     0.27100
C2517       C  0.76885573  0.26526138  0.30304601     0.27100
C2518       C  0.80205986  0.27672731  0.32259840     0.27100
C2519       C  0.69883941  0.22576779  0.32937207     0.35700
C2520       C  0.72085406  0.24443036  0.30646125     0.35700
C2521       C  0.78230541  0.26426253  0.37989868     0.35700
C2522       C  0.80538746  0.28140671  0.35679724     0.35700
C2523       C  0.70709191  0.19930417  0.37781697    -0.21800
C2524       C  0.72722474  0.20844024  0.39018142    -0.21800
C2525       C  0.79358320  0.26938714  0.29306018    -0.21800
C2526       C  0.81463872  0.27616714  0.30540234    -0.21800
C2527       C  0.67925120  0.22752199  0.31508813    -0.22800
C2528       C  0.69332350  0.23901171  0.30050721    -0.22800
C2529       C  0.80379020  0.28098795  0.38714198    -0.22800
C2530       C  0.81878179  0.29148161  0.37246416    -0.22800
C2531       C  0.69227079  0.21597859  0.34714314    -0.18200
C2532       C  0.76366538  0.24674777  0.39000630    -0.18200
C2533       C  0.81705192  0.28233532  0.33906239    -0.18200
C2534       C  0.74258614  0.25605165  0.29554394    -0.18200
H2535       H  0.69005116  0.18441722  0.38057823     0.14700
H2536       H  0.72893360  0.20168072  0.40429072     0.14700
H2537       H  0.79645491  0.26681962  0.27848137     0.14700
H2538       H  0.83680580  0.28011399  0.30205424     0.14700
H2539       H  0.65708986  0.22111985  0.31513951     0.13000
H2540       H  0.68419003  0.24327501  0.28716292     0.13000
H2541       H  0.80901339  0.28402025  0.40141711     0.13000
H2542       H  0.83802115  0.30412388  0.37319566     0.13000
H2543       H  0.73780898  0.24912097  0.35528817     0.26300
H2544       H  0.75894261  0.27197300  0.33135418     0.26300
O2545       O  0.98277348  0.50291151  0.47618533    -0.72800
O2546       O  0.98094756  0.51421412  0.53078091    -0.73800
O2547       O  0.93713531  0.51020813  0.50286597    -0.62400
O2548       O  0.52746677  0.50744316  0.50399945    -0.70800
O2549       O  0.52783817  0.05455672  0.49980389    -0.70400
O2550       O  0.93745965  0.05748652  0.50016505    -0.61700
O2551       O  0.98328324  0.06140377  0.52748732    -0.74200
O2552       O  0.98229436  0.05031714  0.47210793    -0.72900
Cu2553     Cu  0.98209525  0.50720271  0.50357431     1.04600
Cu2554     Cu  0.98272555  0.05753394  0.49972059     1.04300
C2555       C  0.98254058  0.52461821  0.46545325     0.93400
C2556       C  0.98203730  0.53925056  0.53803196     0.92500
C2557       C  0.92276880  0.53417195  0.50174174     0.84600
C2558       C  0.54213892  0.53054147  0.50194879     0.90900
O2559       O  0.99907254  0.22069907  0.47429805    -0.72800
O2560       O  0.99930727  0.21153998  0.52929676    -0.73800
O2561       O  0.95457085  0.21610475  0.50225416    -0.62400
O2562       O  0.54494849  0.21560076  0.50176702    -0.70800
O2563       O  0.54451377  0.26263296  0.50490579    -0.70400
O2564       O  0.95405822  0.26345387  0.50532830    -0.61700
O2565       O  0.99994009  0.25886347  0.53220836    -0.74200
O2566       O  0.99836234  0.26816254  0.47754374    -0.72900
Cu2567     Cu  0.99959411  0.21440412  0.50175332     1.04600
Cu2568     Cu  0.99925745  0.26482529  0.50506289     1.04300
C2569       C  0.99814819  0.24593551  0.46719986     0.93400
C2570       C  0.99912343  0.23393098  0.53952963     0.92500
C2571       C  0.94000013  0.23981982  0.50409005     0.84600
C2572       C  0.55934285  0.23894181  0.50354151     0.90900
O2573       O  0.68601626  0.05543468  0.50515552    -0.72800
O2574       O  0.77640827  0.05824747  0.50597299    -0.73800
O2575       O  0.73088742  0.06095046  0.47811586    -0.62400
O2576       O  0.73094618  0.05259339  0.53338028    -0.70800
O2577       O  0.73498148  0.50539513  0.53030423    -0.70400
O2578       O  0.73322862  0.51338289  0.47555737    -0.61700
O2579       O  0.77882647  0.51106052  0.50268506    -0.74200
O2580       O  0.68860472  0.50800843  0.50288363    -0.72900
Cu2581     Cu  0.73103039  0.05841068  0.50579184     1.04600
Cu2582     Cu  0.73396627  0.50793839  0.50279599     1.04300
C2583       C  0.67291152  0.03129367  0.50369823     0.93400
C2584       C  0.79207126  0.03512496  0.50432819     0.92500
C2585       C  0.73149039  0.53825385  0.46807992     0.84600
C2586       C  0.73337599  0.02757351  0.54068103     0.90900
O2587       O  0.75209023  0.21245285  0.53205088    -0.72800
O2588       O  0.75286081  0.21600878  0.47695521    -0.73800
O2589       O  0.79688259  0.21495554  0.50477782    -0.62400
O2590       O  0.70644218  0.21402708  0.50418796    -0.70800
O2591       O  0.70541962  0.26117938  0.50573919    -0.70400
O2592       O  0.79541500  0.26247120  0.50651927    -0.61700
O2593       O  0.75191683  0.26370284  0.47860625    -0.74200
O2594       O  0.74959858  0.25974515  0.53382918    -0.72900
Cu2595     Cu  0.75198123  0.21278942  0.50446971     1.04600
Cu2596     Cu  0.75042861  0.26334147  0.50621989     1.04300
C2597       C  0.75106049  0.23527201  0.54184699     0.93400
C2598       C  0.75364664  0.24056301  0.46907734     0.92500
C2599       C  0.81043169  0.23889751  0.50555256     0.84600
C2600       C  0.69127554  0.23760688  0.50493073     0.90900
O2601       O  0.56319164  0.03718679  0.00111841    -0.72800
O2602       O  0.56149714  0.44691908  0.00059463    -0.73800
O2603       O  0.56182623  0.99224603  0.97278393    -0.62400
O2604       O  0.56174295  0.99106277  0.02876555    -0.70800
O2605       O  0.01475699  0.99492805  0.02802666    -0.70400
O2606       O  0.01439267  0.99316910  0.97317838    -0.61700
O2607       O  0.01425992  0.44855810  0.00133037    -0.74200
O2608       O  0.01601163  0.03927217  0.00028392    -0.72900
Cu2609     Cu  0.56368487  0.99189869  0.00079329     1.04600
Cu2610     Cu  0.01335352  0.99409713  0.00066421     1.04300
C2611       C  0.53997012  0.05265884  0.00068972     0.93400
C2612       C  0.53773697  0.43329439  0.00106277     0.92500
C2613       C  0.53780739  0.99212732  0.96422483     0.84600
C2614       C  0.53780754  0.99247852  0.03732140     0.90900
O2615       O  0.01628246  0.28791711  0.00320109    -0.72800
O2616       O  0.01842394  0.19770505  0.00041240    -0.73800
O2617       O  0.01749134  0.23984778  0.02943370    -0.62400
O2618       O  0.01779138  0.24523978  0.97443414    -0.70800
O2619       O  0.56529251  0.24524633  0.97443236    -0.70400
O2620       O  0.56456549  0.24122749  0.02981576    -0.61700
O2621       O  0.56570473  0.19761259  0.00100085    -0.74200
O2622       O  0.56352962  0.28829256  0.00307092    -0.72900
Cu2623     Cu  0.01597988  0.24266801  0.00188501     1.04600
Cu2624     Cu  0.56639038  0.24305094  0.00211325     1.04300
C2625       C  0.53952733  0.30254776  0.00307396     0.93400
C2626       C  0.54230961  0.18323559  0.00045207     0.92500
C2627       C  0.54094028  0.23942812  0.03853024     0.84600
C2628       C  0.54152621  0.24658178  0.96570615     0.90900
O2629       O  0.70344298  0.99618656  0.03218875    -0.72800
O2630       O  0.70426623  0.99365343  0.97686175    -0.73800
O2631       O  0.70515359  0.44987468  0.00514620    -0.62400
O2632       O  0.70214139  0.04020518  0.00429667    -0.70800
O2633       O  0.74919083  0.04067886  0.00504345    -0.70400
O2634       O  0.75235611  0.45002872  0.00450890    -0.61700
O2635       O  0.75146207  0.99574456  0.97720596    -0.74200
O2636       O  0.75066177  0.99470826  0.03214788    -0.72900
Cu2637     Cu  0.70215398  0.99496620  0.00457668     1.04600
Cu2638     Cu  0.75245695  0.99534181  0.00472995     1.04300
C2639       C  0.72713672  0.99567773  0.04100480     0.93400
C2640       C  0.72806598  0.99425474  0.96820611     0.92500
C2641       C  0.72906932  0.43554468  0.00490168     0.84600
C2642       C  0.72520505  0.05498400  0.00495254     0.90900
O2643       O  0.75148524  0.28961092  0.00573517    -0.72800
O2644       O  0.74782184  0.19953003  0.00840386    -0.73800
O2645       O  0.75094161  0.24178306  0.97967297    -0.62400
O2646       O  0.74825897  0.24788010  0.03460225    -0.70800
O2647       O  0.70106148  0.24799596  0.03346655    -0.70400
O2648       O  0.70395476  0.24663652  0.97836693    -0.61700
O2649       O  0.70085336  0.20190627  0.00636389    -0.74200
O2650       O  0.70427834  0.29210964  0.00566187    -0.72900
Cu2651     Cu  0.75119684  0.24451741  0.00715236     1.04600
Cu2652     Cu  0.70096782  0.24717666  0.00593269     1.04300
C2653       C  0.72836252  0.30522560  0.00555252     0.93400
C2654       C  0.72387379  0.18621552  0.00748432     0.92500
C2655       C  0.72799678  0.24381881  0.97016493     0.84600
C2656       C  0.72413570  0.24948145  0.04281599     0.90900
N2657       N  0.53011871  0.46788540  0.85450163    -0.36500
N2658       N  0.50385954  0.02120291  0.86154929    -0.57100
N2659       N  0.49633008  0.03058615  0.82158649    -0.36500
N2660       N  0.52396741  0.47669082  0.81421266    -0.57100
C2661       C  0.53729565  0.47047391  0.87242394     0.27100
C2662       C  0.54634754  0.44636010  0.84739088     0.27100
C2663       C  0.49328481  0.05757551  0.82838414     0.27100
C2664       C  0.00165611  0.03313150  0.80341292     0.27100
C2665       C  0.50563302  0.01223510  0.87906250     0.35700
C2666       C  0.48812618  0.04576217  0.86159463     0.35700
C2667       C  0.52954949  0.44805318  0.81493397     0.35700
C2668       C  0.01300971  0.48209310  0.79739157     0.35700
C2669       C  0.55842175  0.45021518  0.87671903    -0.21800
C2670       C  0.56388470  0.43474478  0.86095909    -0.21800
C2671       C  0.99632206  0.07743957  0.81430456    -0.21800
C2672       C  0.00141261  0.06197309  0.79855565    -0.21800
C2673       C  0.49049897  0.03105200  0.89034904    -0.22800
C2674       C  0.47950386  0.05244728  0.87926510    -0.22800
C2675       C  0.02268484  0.43525174  0.79836249    -0.22800
C2676       C  0.01242198  0.45696234  0.78716962    -0.22800
C2677       C  0.52390735  0.48957146  0.88508770    -0.18200
C2678       C  0.54145251  0.43345143  0.83019600    -0.18200
C2679       C  0.00491765  0.50989837  0.79110135    -0.18200
C2680       C  0.48658371  0.06490848  0.84673246    -0.18200
H2681       H  0.56808752  0.44628755  0.88995373     0.14700
H2682       H  0.57822069  0.41622753  0.85977162     0.14700
H2683       H  0.99477174  0.10070263  0.81522984     0.14700
H2684       H  0.00459725  0.07091603  0.78507922     0.14700
H2685       H  0.48875661  0.03022783  0.90507675     0.13000
H2686       H  0.46780923  0.07154579  0.88379224     0.13000
H2687       H  0.02509170  0.41270716  0.79467403     0.13000
H2688       H  0.00521737  0.45454566  0.77319917     0.13000
H2689       H  0.51222370  0.47672157  0.84797636     0.26300
H2690       H  0.49222778  0.01165204  0.82864593     0.26300
N2691       N  0.53669862  0.27447833  0.85652110    -0.36500
N2692       N  0.52826463  0.26845601  0.81665269    -0.57100
N2693       N  0.49186185  0.21997162  0.82335446    -0.36500
N2694       N  0.50165127  0.22684814  0.86334557    -0.57100
C2695       C  0.55270249  0.29610082  0.85014635     0.27100
C2696       C  0.54279024  0.27104142  0.87454620     0.27100
C2697       C  0.99719206  0.21663874  0.80528165     0.27100
C2698       C  0.48493194  0.19374519  0.82985047     0.27100
C2699       C  0.53680459  0.29609905  0.81743236     0.35700
C2700       C  0.01780462  0.26440697  0.79962083     0.35700
C2701       C  0.50665020  0.23369684  0.88096225     0.35700
C2702       C  0.48271357  0.20540365  0.86327712     0.35700
C2703       C  0.56936436  0.30676343  0.86423121    -0.21800
C2704       C  0.56356712  0.29053817  0.87955675    -0.21800
C2705       C  0.99220555  0.18850511  0.80005495    -0.21800
C2706       C  0.98474309  0.17398417  0.81557944    -0.21800
C2707       C  0.03246351  0.30930053  0.80063094    -0.22800
C2708       C  0.02093045  0.28902644  0.78923726    -0.22800
C2709       C  0.49010003  0.21688172  0.89229775    -0.22800
C2710       C  0.47498279  0.19885760  0.88106942    -0.22800
C2711       C  0.54816221  0.30979975  0.83310784    -0.18200
C2712       C  0.52798919  0.25287680  0.88684491    -0.18200
C2713       C  0.47933091  0.18665529  0.84834317    -0.18200
C2714       C  0.00602937  0.23848197  0.79326101    -0.18200
H2715       H  0.58315404  0.32523941  0.86369917     0.14700
H2716       H  0.57229385  0.29394550  0.89307868     0.14700
H2717       H  0.99438210  0.17921393  0.78654469     0.14700
H2718       H  0.97992076  0.15129165  0.81618414     0.14700
H2719       H  0.03711305  0.33129429  0.79689434     0.13000
H2720       H  0.01476252  0.29227760  0.77511948     0.13000
H2721       H  0.49004706  0.21654743  0.90707785     0.13000
H2722       H  0.46154910  0.18142000  0.88549313     0.13000
H2723       H  0.51957324  0.26636842  0.84940310     0.26300
H2724       H  0.49139816  0.23918259  0.83066466     0.26300
N2725       N  0.74917707  0.01199671  0.86112154    -0.36500
N2726       N  0.74826288  0.01142760  0.82069129    -0.57100
N2727       N  0.71401745  0.46210959  0.82136218    -0.36500
N2728       N  0.71224850  0.46263482  0.86156655    -0.57100
C2729       C  0.75822957  0.03883499  0.85727439     0.27100
C2730       C  0.74086588  0.01208048  0.87886530     0.27100
C2731       C  0.71116191  0.46881666  0.80346339     0.27100
C2732       C  0.69544148  0.44108553  0.82505698     0.27100
C2733       C  0.76662566  0.03295269  0.82369320     0.35700
C2734       C  0.74896269  0.00560866  0.80261036     0.35700
C2735       C  0.71889564  0.46390163  0.87953650     0.35700
C2736       C  0.70436580  0.43523077  0.85829219     0.35700
C2737       C  0.75661688  0.05576967  0.87293992    -0.21800
C2738       C  0.74599071  0.03879923  0.88657409    -0.21800
C2739       C  0.68977560  0.45219882  0.79581403    -0.21800
C2740       C  0.68034546  0.43415497  0.80940174    -0.21800
C2741       C  0.77925220  0.04101706  0.80740748    -0.22800
C2742       C  0.76846156  0.02330278  0.79407015    -0.22800
C2743       C  0.71375422  0.43773771  0.88788627    -0.22800
C2744       C  0.70517982  0.41933337  0.87433381    -0.22800
C2745       C  0.76774427  0.04886006  0.84007063    -0.18200
C2746       C  0.72967695  0.98838440  0.88846742    -0.18200
C2747       C  0.69654665  0.42428797  0.84100996    -0.18200
C2748       C  0.72969614  0.98700531  0.79362853    -0.18200
H2749       H  0.76248577  0.07813394  0.87444850     0.14700
H2750       H  0.74211389  0.04558217  0.90051340     0.14700
H2751       H  0.68291080  0.45184555  0.78169000     0.14700
H2752       H  0.66507937  0.41704032  0.80781398     0.14700
H2753       H  0.79389046  0.05853479  0.80529495     0.13000
H2754       H  0.77330799  0.02438405  0.77964270     0.13000
H2755       H  0.71679844  0.43219059  0.90211723     0.13000
H2756       H  0.70005092  0.39685076  0.87614598     0.13000
H2757       H  0.75043613  0.99421371  0.85247151     0.26300
H2758       H  0.73097727  0.46730058  0.82988082     0.26300
N2759       N  0.72238349  0.26289492  0.86273663    -0.36500
N2760       N  0.75677598  0.21058480  0.86436794    -0.57100
N2761       N  0.75777894  0.21020802  0.82405558    -0.36500
N2762       N  0.72511274  0.26183881  0.82253097    -0.57100
C2763       C  0.72952749  0.26209460  0.88065921     0.27100
C2764       C  0.71662486  0.29078720  0.85849711     0.27100
C2765       C  0.77579918  0.18806016  0.82799268     0.27100
C2766       C  0.76013670  0.21572496  0.80596595     0.27100
C2767       C  0.74778177  0.21177279  0.88193880     0.35700
C2768       C  0.76539154  0.18301088  0.86128208     0.35700
C2769       C  0.70730932  0.28452641  0.82523205     0.35700
C2770       C  0.72424990  0.25570144  0.80454586     0.35700
C2771       C  0.72744281  0.28958890  0.88804223    -0.21800
C2772       C  0.71974124  0.30779552  0.87398886    -0.21800
C2773       C  0.78998638  0.17927612  0.81223650    -0.21800
C2774       C  0.78030842  0.19696274  0.79834257    -0.21800
C2775       C  0.75192799  0.18525939  0.89030098    -0.22800
C2776       C  0.76280926  0.16690349  0.87714240    -0.22800
C2777       C  0.69474873  0.29292631  0.80884705    -0.22800
C2778       C  0.70542954  0.27448337  0.79568746    -0.22800
C2779       C  0.73689252  0.23693927  0.89058687    -0.18200
C2780       C  0.70737551  0.30118885  0.84125608    -0.18200
C2781       C  0.74253432  0.23530218  0.79597302    -0.18200
C2782       C  0.77465430  0.17182239  0.84421795    -0.18200
H2783       H  0.73141949  0.29595571  0.90203232     0.14700
H2784       H  0.71638218  0.33090307  0.87514761     0.14700
H2785       H  0.80464737  0.16103878  0.81075206     0.14700
H2786       H  0.78633903  0.19520480  0.78411086     0.14700
H2787       H  0.74710136  0.17963872  0.90428857     0.13000
H2788       H  0.76804681  0.14423321  0.87898777     0.13000
H2789       H  0.68055333  0.31131857  0.80652505     0.13000
H2790       H  0.70085746  0.27557972  0.78120547     0.13000
H2791       H  0.71910712  0.24512611  0.85434252     0.26300
H2792       H  0.74142141  0.21721344  0.83263786     0.26300
N2793       N  0.50623653  0.56568722  0.64559601    -0.36500
N2794       N  0.50871593  0.55625245  0.68624982    -0.57100
N2795       N  0.95991706  0.52240075  0.68528392    -0.36500
N2796       N  0.95735533  0.52858469  0.64491172    -0.57100
C2797       C  0.53403967  0.57092598  0.64935512     0.27100
C2798       C  0.50455916  0.55993452  0.62743420     0.27100
C2799       C  0.96890699  0.51626614  0.70251903     0.27100
C2800       C  0.94009100  0.50295266  0.68068881     0.27100
C2801       C  0.53066574  0.57398221  0.68331961     0.35700
C2802       C  0.50508699  0.55436233  0.70449713     0.35700
C2803       C  0.95664304  0.53793069  0.62738436     0.35700
C2804       C  0.93143804  0.51720536  0.64819328     0.35700
C2805       C  0.54973032  0.57038153  0.63325158    -0.21800
C2806       C  0.53103430  0.56385308  0.61939039    -0.21800
C2807       C  0.95453191  0.49235643  0.70886205    -0.21800
C2808       C  0.93590229  0.48432107  0.69519532    -0.21800
C2809       C  0.54098095  0.58389662  0.69991783    -0.22800
C2810       C  0.52419014  0.57217209  0.71333553    -0.22800
C2811       C  0.93059768  0.53172487  0.61937473    -0.22800
C2812       C  0.91446113  0.51891761  0.63262124    -0.22800
C2813       C  0.54641484  0.57351557  0.66697703    -0.18200
C2814       C  0.98013117  0.54974634  0.61808698    -0.18200
C2815       C  0.92291404  0.50449834  0.66483927    -0.18200
C2816       C  0.98831863  0.53295540  0.71293791    -0.18200
H2817       H  0.57254225  0.57349234  0.63174488     0.14700
H2818       H  0.53667261  0.56074602  0.60518130     0.14700
H2819       H  0.95649912  0.48236156  0.72216429     0.14700
H2820       H  0.92065133  0.46706410  0.69594703     0.14700
H2821       H  0.55981972  0.59664500  0.70220687     0.13000
H2822       H  0.52742065  0.57443888  0.72790384     0.13000
H2823       H  0.92395834  0.53600824  0.60545200     0.13000
H2824       H  0.89285164  0.51125709  0.63088373     0.13000
H2825       H  0.48944146  0.56591676  0.65496223     0.26300
H2826       H  0.96344740  0.54117714  0.67790152     0.26300
N2827       N  0.52149962  0.24109105  0.64554778    -0.36500
N2828       N  0.97160674  0.20649308  0.64656589    -0.57100
N2829       N  0.97476846  0.20824923  0.68712524    -0.36500
N2830       N  0.52324793  0.24151171  0.68618622    -0.57100
C2831       C  0.51991976  0.23219814  0.62794627     0.27100
C2832       C  0.54927833  0.24656434  0.64907562     0.27100
C2833       C  0.95445953  0.18872610  0.68395222     0.27100
C2834       C  0.98217062  0.20640606  0.70499762     0.27100
C2835       C  0.97060284  0.21461792  0.62881533     0.35700
C2836       C  0.94470856  0.19923581  0.65112036     0.35700
C2837       C  0.54423350  0.25965402  0.68193826     0.35700
C2838       C  0.51820778  0.24441185  0.70423729     0.35700
C2839       C  0.54680288  0.23311635  0.61999110    -0.21800
C2840       C  0.56546707  0.24157035  0.63344401    -0.21800
C2841       C  0.94892498  0.17379682  0.69993636    -0.21800
C2842       C  0.96675169  0.18474046  0.71322214    -0.21800
C2843       C  0.94330874  0.21131709  0.62181033    -0.22800
C2844       C  0.92670980  0.20208253  0.63605503    -0.22800
C2845       C  0.55279110  0.27445347  0.69744531    -0.22800
C2846       C  0.53593956  0.26506914  0.71159090    -0.22800
C2847       C  0.99451511  0.22419162  0.61894522    -0.18200
C2848       C  0.56026422  0.25701215  0.66579506    -0.18200
C2849       C  0.00015518  0.22600527  0.71417753    -0.18200
C2850       C  0.93618662  0.18992670  0.66865776    -0.18200
H2851       H  0.55256238  0.22784345  0.60606162     0.14700
H2852       H  0.58830150  0.24428702  0.63176970     0.14700
H2853       H  0.93245925  0.15800313  0.70202436     0.14700
H2854       H  0.96706769  0.17867844  0.72749078     0.14700
H2855       H  0.93600622  0.21569019  0.60803462     0.13000
H2856       H  0.90401562  0.19780374  0.63533927     0.13000
H2857       H  0.57040378  0.28921993  0.69858170     0.13000
H2858       H  0.53766642  0.27148967  0.72576134     0.13000
H2859       H  0.50429364  0.24539642  0.65423608     0.26300
H2860       H  0.97853976  0.22539531  0.67838220     0.26300
N2861       N  0.70356288  0.01958580  0.64758820    -0.36500
N2862       N  0.70122533  0.01036660  0.68739597    -0.57100
N2863       N  0.75882813  0.98711757  0.68706319    -0.36500
N2864       N  0.76146903  0.99898514  0.64729325    -0.57100
C2865       C  0.67916435  0.03431522  0.65165872     0.27100
C2866       C  0.71042572  0.02602447  0.63010883     0.27100
C2867       C  0.75454059  0.98979938  0.70530252     0.27100
C2868       C  0.78747543  0.98662305  0.68437574     0.27100
C2869       C  0.67374976  0.01856789  0.68424948     0.35700
C2870       C  0.70221712  0.00004592  0.70466827     0.35700
C2871       C  0.75779971  0.00082604  0.62898972     0.35700
C2872       C  0.78800339  0.98782064  0.65009455     0.35700
C2873       C  0.67014813  0.04999479  0.63647309    -0.21800
C2874       C  0.68986084  0.04471717  0.62287927    -0.21800
C2875       C  0.78067548  0.98957841  0.71431166    -0.21800
C2876       C  0.80143417  0.98746465  0.70114564    -0.21800
C2877       C  0.65726855  0.01361461  0.69966376    -0.22800
C2878       C  0.67525752  0.00164401  0.71252378    -0.22800
C2879       C  0.78203074  0.99044917  0.62008184    -0.22800
C2880       C  0.80134995  0.98266150  0.63344525    -0.22800
C2881       C  0.66351369  0.03209209  0.66812289    -0.18200
C2882       C  0.73415842  0.01458580  0.62030428    -0.18200
C2883       C  0.80170951  0.98611485  0.66730308    -0.18200
C2884       C  0.72770905  0.99256974  0.71413119    -0.18200
H2885       H  0.65104925  0.06346469  0.63516443     0.14700
H2886       H  0.68902888  0.05352720  0.60920416     0.14700
H2887       H  0.78447306  0.99139670  0.72885167     0.14700
H2888       H  0.82430285  0.98716392  0.70367347     0.14700
H2889       H  0.63469759  0.01850402  0.70158955     0.13000
H2890       H  0.66937087  0.99573234  0.72629171     0.13000
H2891       H  0.78591595  0.98986453  0.60551558     0.13000
H2892       H  0.82301426  0.97480022  0.63111076     0.13000
H2893       H  0.71284888  0.00346636  0.65554939     0.26300
H2894       H  0.74325769  0.98423031  0.67712247     0.26300
N2895       N  0.72287639  0.24161889  0.64846792    -0.36500
N2896       N  0.72222068  0.24446799  0.68884450    -0.57100
N2897       N  0.77601394  0.21738332  0.69001555    -0.36500
N2898       N  0.77720323  0.21309703  0.64951528    -0.57100
C2899       C  0.69461465  0.24453346  0.65199800     0.27100
C2900       C  0.72545395  0.23276848  0.63089785     0.27100
C2901       C  0.76885724  0.21548380  0.70789168     0.27100
C2902       C  0.79774985  0.19848965  0.68702606     0.27100
C2903       C  0.69788562  0.25895930  0.68479532     0.35700
C2904       C  0.72726634  0.24882779  0.70676746     0.35700
C2905       C  0.77680114  0.22048557  0.63163563     0.35700
C2906       C  0.80478730  0.20705959  0.65372203     0.35700
C2907       C  0.67906151  0.23773935  0.63640171    -0.21800
C2908       C  0.69862108  0.23073188  0.62298753    -0.21800
C2909       C  0.78630455  0.19500103  0.71637407    -0.21800
C2910       C  0.80474675  0.18437943  0.70317848    -0.21800
C2911       C  0.68734102  0.27297843  0.70021480    -0.22800
C2912       C  0.70625024  0.26681869  0.71416175    -0.22800
C2913       C  0.80403818  0.21836329  0.62429169    -0.22800
C2914       C  0.82189290  0.21004267  0.63834546    -0.22800
C2915       C  0.68252067  0.25482958  0.66852616    -0.18200
C2916       C  0.75166283  0.22759270  0.62182579    -0.18200
C2917       C  0.81460666  0.19798134  0.67109738    -0.18200
C2918       C  0.74814196  0.23317912  0.71676284    -0.18200
H2919       H  0.65599952  0.23832197  0.63472493     0.14700
H2920       H  0.69366034  0.22453461  0.60909613     0.14700
H2921       H  0.78630254  0.18898780  0.73065250     0.14700
H2922       H  0.82206905  0.16887107  0.70532939     0.14700
H2923       H  0.66741643  0.28518172  0.70144415     0.13000
H2924       H  0.70385730  0.27331579  0.72829212     0.13000
H2925       H  0.81034333  0.22246289  0.61033083     0.13000
H2926       H  0.84482564  0.20645515  0.63731554     0.13000
H2927       H  0.73945060  0.24805208  0.65698857     0.26300
H2928       H  0.76994517  0.23369585  0.68099011     0.26300
C2929       C  0.88899887  0.16547413  0.66675978    -0.01700
C2930       C  0.90525896  0.18915181  0.67233281     0.07900
C2931       C  0.89177391  0.21434166  0.67930332    -0.01900
C2932       C  0.86194370  0.21651817  0.67963525    -0.01900
C2933       C  0.84560656  0.19322968  0.67345487     0.08100
C2934       C  0.85898122  0.16740579  0.66751947    -0.02000
Br2935     Br  0.83608357  0.13570251  0.65938109    -0.00600
Br2936     Br  0.90793714  0.13168781  0.65674564    -0.00700
Br2937     Br  0.84354873  0.25268386  0.68665516    -0.00600
Br2938     Br  0.91388996  0.24725352  0.68666225    -0.00600
C2939       C  0.60610335  0.23393798  0.67522699    -0.01700
C2940       C  0.59156333  0.25816403  0.66780399     0.07900
C2941       C  0.60674900  0.28226847  0.66180351    -0.01900
C2942       C  0.63674552  0.28186967  0.66286775    -0.01900
C2943       C  0.65118382  0.25719344  0.66957676     0.08100
C2944       C  0.63596020  0.23346044  0.67613153    -0.02000
Br2945     Br  0.65604652  0.19980937  0.68567887    -0.00600
Br2946     Br  0.58523293  0.20072273  0.68334195    -0.00700
Br2947     Br  0.65832123  0.31467001  0.65507660    -0.00600
Br2948     Br  0.58649973  0.31513159  0.65167805    -0.00600
C2949       C  0.87365391  0.02110500  0.67164050    -0.01700
C2950       C  0.89225349  0.49808158  0.66693154     0.07900
C2951       C  0.88151284  0.47056221  0.66303135    -0.01900
C2952       C  0.85186931  0.46596852  0.66417164    -0.01900
C2953       C  0.83316086  0.98958249  0.66757932     0.08100
C2954       C  0.84406727  0.01709599  0.67146565    -0.02000
Br2955     Br  0.81849731  0.04950859  0.67648362    -0.00600
Br2956     Br  0.88866585  0.05845282  0.67792185    -0.00700
Br2957     Br  0.83689287  0.42777078  0.66120377    -0.00600
Br2958     Br  0.90718624  0.43983167  0.65540912    -0.00600
C2959       C  0.59921867  0.08334876  0.67045096    -0.01700
C2960       C  0.57667110  0.56370464  0.66858993     0.07900
C2961       C  0.58275031  0.53382947  0.66692453    -0.01900
C2962       C  0.61113735  0.52396396  0.66555325    -0.01900
C2963       C  0.63365918  0.04335144  0.66818164     0.08100
C2964       C  0.62772242  0.07296695  0.67102354    -0.02000
Br2965     Br  0.65868363  0.09910579  0.67534566    -0.00600
Br2966     Br  0.59095194  0.12412443  0.67161221    -0.00700
Br2967     Br  0.61936308  0.48410113  0.65942996    -0.00600
Br2968     Br  0.55219982  0.50617971  0.66656824    -0.00600
C2969       C  0.72423830  0.21852715  0.76557153    -0.01700
C2970       C  0.74388272  0.23490560  0.77564837     0.07900
C2971       C  0.76464974  0.25108565  0.76645449    -0.01900
C2972       C  0.76647976  0.25000359  0.74726031    -0.01900
C2973       C  0.74683554  0.23358660  0.73713581     0.08100
C2974       C  0.72545780  0.21814560  0.74636200    -0.02000
Br2975     Br  0.69774126  0.19650429  0.73269064    -0.00600
Br2976     Br  0.69551800  0.19683174  0.77821041    -0.00700
Br2977     Br  0.79560565  0.27135843  0.73478725    -0.00600
Br2978     Br  0.79003457  0.27527646  0.78025086    -0.00600
C2979       C  0.72244931  0.37924159  0.83234406    -0.01700
C2980       C  0.69690855  0.39267608  0.83863742     0.07900
C2981       C  0.67381275  0.37596007  0.84450616    -0.01900
C2982       C  0.67682027  0.34576652  0.84497830    -0.01900
C2983       C  0.70259162  0.33253273  0.83915107     0.08100
C2984       C  0.72507432  0.34917823  0.83229779    -0.02000
Br2985     Br  0.76025168  0.33089284  0.82379387    -0.00600
Br2986     Br  0.75505524  0.40187320  0.82531474    -0.00700
Br2987     Br  0.64654852  0.32239380  0.85439167    -0.00600
Br2988     Br  0.63905022  0.39455883  0.85293368    -0.00600
C2989       C  0.74683579  0.09758426  0.83558607    -0.01700
C2990       C  0.77156841  0.08027662  0.83841774     0.07900
C2991       C  0.79816531  0.09296307  0.84204966    -0.01900
C2992       C  0.79962192  0.12311505  0.84399599    -0.01900
C2993       C  0.77459397  0.14022753  0.84179624     0.08100
C2994       C  0.74838837  0.12750396  0.83713228    -0.02000
Br2995     Br  0.71412536  0.15105024  0.83354524    -0.00600
Br2996     Br  0.71025545  0.08011127  0.83073563    -0.00700
Br2997     Br  0.83528117  0.14095688  0.85020671    -0.00600
Br2998     Br  0.83208425  0.06893593  0.84457351    -0.00600
C2999       C  0.71884526  0.01328200  0.76423498    -0.01700
C3000       C  0.72789333  0.98771796  0.77318979     0.07900
C3001       C  0.73575767  0.46347759  0.76263832    -0.01900
C3002       C  0.73352010  0.46437392  0.74343696    -0.01900
C3003       C  0.72697939  0.99056050  0.73454299     0.08100
C3004       C  0.72081772  0.01538175  0.74513424    -0.02000
Br3005     Br  0.71755034  0.05283525  0.73372350    -0.00600
Br3006     Br  0.70266467  0.04519125  0.77800239    -0.00700
Br3007     Br  0.73972091  0.42961909  0.72929680    -0.00600
Br3008     Br  0.75104278  0.42913951  0.77428110    -0.00600
C3009       C  0.97845255  0.24124625  0.76366359    -0.01700
C3010       C  0.00379431  0.23355129  0.77310372     0.07900
C3011       C  0.52699818  0.22119411  0.76334995     0.00500
C3012       C  0.52490527  0.21675724  0.74433391    -0.01900
C3013       C  0.00066142  0.22697867  0.73465590     0.08100
C3014       C  0.97735616  0.23921699  0.74445654    -0.02000
Br3015     Br  0.94441165  0.25455522  0.73163389    -0.00600
Br3016     Br  0.94516822  0.25426066  0.77715910    -0.00700
Br3017     Br  0.55483733  0.19564666  0.73166424    -0.00600
Br3018     Br  0.56167870  0.21030453  0.77616922    -0.00600
C3019       C  0.56781500  0.38717367  0.82269317    -0.01700
C3020       C  0.54351146  0.40170319  0.82977318     0.07900
C3021       C  0.02125979  0.38620870  0.83796119    -0.01900
C3022       C  0.02398099  0.35636469  0.84001116    -0.01900
C3023       C  0.54830605  0.34165768  0.83299291     0.08100
C3024       C  0.57017923  0.35696549  0.82422625    -0.02000
Br3025     Br  0.60278949  0.33651426  0.81409390    -0.00600
Br3026     Br  0.59717075  0.40872013  0.81062869    -0.00700
Br3027     Br  0.99386296  0.33576538  0.85222507    -0.00600
Br3028     Br  0.98652269  0.40600702  0.84585311    -0.00600
C3029       C  0.50508402  0.14154043  0.85657703    -0.01700
C3030       C  0.47874810  0.15564904  0.85260494     0.07900
C3031       C  0.95382789  0.13975186  0.84962581    -0.01900
C3032       C  0.95590523  0.10956611  0.84857411    -0.01900
C3033       C  0.48267555  0.09570924  0.85107848     0.08100
C3034       C  0.50689147  0.11149253  0.85612593    -0.02000
Br3035     Br  0.54316864  0.09207956  0.86094751    -0.00600
Br3036     Br  0.53960869  0.16324780  0.86045189    -0.00700
Br3037     Br  0.92275766  0.08715689  0.84272320    -0.00600
Br3038     Br  0.91772458  0.15953251  0.84550981    -0.00600
C3039       C  0.96999453  0.03083770  0.74542588    -0.01700
C3040       C  0.99253342  0.52660432  0.73299306     0.07900
C3041       C  0.51939780  0.51639070  0.73967913    -0.01900
C3042       C  0.52382911  0.51256913  0.75862748    -0.01900
C3043       C  0.00060470  0.51522655  0.77095935     0.08100
C3044       C  0.97361835  0.02374219  0.76406377    -0.02000
Br3045     Br  0.94092599  0.02506397  0.78017504    -0.00600
Br3046     Br  0.93415572  0.04794431  0.73726090    -0.00700
Br3047     Br  0.56216497  0.50561534  0.76777726    -0.00600
Br3048     Br  0.55008585  0.50656279  0.72295574    -0.00600
C3049       C  0.70605399  0.23339866  0.93882353    -0.01700
C3050       C  0.72957563  0.24276626  0.94962585     0.07900
C3051       C  0.75508567  0.25091536  0.94050028    -0.01900
C3052       C  0.75781732  0.24737495  0.92144783    -0.01900
C3053       C  0.73458419  0.23788912  0.91094905     0.08100
C3054       C  0.70852323  0.23161626  0.91960263    -0.02000
Br3055     Br  0.67600054  0.22097458  0.90483158    -0.00600
Br3056     Br  0.67005598  0.22258059  0.94966822    -0.00700
Br3057     Br  0.79325742  0.25658289  0.90935685    -0.00600
Br3058     Br  0.78570444  0.27004627  0.95326960    -0.00600
C3059       C  0.71061057  0.35514768  0.99372213    -0.01700
C3060       C  0.72930072  0.33862150  0.00517060     0.07900
C3061       C  0.74853478  0.35450627  0.01629855    -0.01900
C3062       C  0.74879748  0.38553310  0.01608234    -0.01900
C3063       C  0.72956383  0.40206454  0.00491706     0.08100
C3064       C  0.71048285  0.38609893  0.99376026    -0.02000
Br3065     Br  0.68463604  0.40656011  0.97750720    -0.00600
Br3066     Br  0.68621761  0.33532883  0.97668673    -0.00700
Br3067     Br  0.77477282  0.40534121  0.03212129    -0.00600
Br3068     Br  0.77381518  0.33385785  0.03283815    -0.00600
C3069       C  0.70163787  0.10567548  0.99777135    -0.01700
C3070       C  0.72418478  0.08870086  0.00588733     0.07900
C3071       C  0.74547536  0.10458448  0.01541763    -0.01900
C3072       C  0.74447556  0.13554108  0.01661355    -0.01900
C3073       C  0.72307486  0.15255643  0.00750982     0.08100
C3074       C  0.70130545  0.13676264  0.99834390    -0.02000
Br3075     Br  0.67064032  0.15739642  0.98590694    -0.00600
Br3076     Br  0.67087541  0.08677849  0.98509672    -0.00700
Br3077     Br  0.77136150  0.15430287  0.03260542    -0.00600
Br3078     Br  0.77604776  0.08423648  0.02800620    -0.00600
C3079       C  0.70643021  0.50438008  0.91796915    -0.01700
C3080       C  0.72906123  0.98956794  0.90887420     0.07900
C3081       C  0.75145114  0.97672866  0.91908271    -0.01900
C3082       C  0.75133263  0.97827899  0.93834437    -0.01900
C3083       C  0.72862286  0.99294779  0.94769827     0.08100
C3084       C  0.70625912  0.50625802  0.93721251    -0.02000
Br3085     Br  0.67613657  0.52888001  0.94871543    -0.00600
Br3086     Br  0.67618518  0.52270298  0.90380761    -0.00700
Br3087     Br  0.78232440  0.95919834  0.95141797    -0.00600
Br3088     Br  0.78238885  0.95691528  0.90639380    -0.00600
C3089       C  0.02202949  0.27108491  0.93756783    -0.01700
C3090       C  0.54095281  0.25029492  0.94544963     0.07900
C3091       C  0.55793408  0.23249620  0.93386096    -0.01900
C3092       C  0.55461480  0.23422736  0.91467942    -0.01900
C3093       C  0.53458678  0.25389321  0.90689672     0.08100
C3094       C  0.01855146  0.27250644  0.91844849    -0.02000
Br3095     Br  0.99049694  0.29875695  0.90795209    -0.00600
Br3096     Br  0.00153419  0.29854796  0.95282167    -0.00700
Br3097     Br  0.57627002  0.20845193  0.89899387    -0.00600
Br3098     Br  0.58453635  0.20444305  0.94409655    -0.00600
C3099       C  0.55631975  0.38281851  0.99011116    -0.01700
C3100       C  0.53760897  0.39972941  0.00136867     0.07900
C3101       C  0.01910818  0.38402385  0.01308144    -0.01900
C3102       C  0.01915823  0.35298171  0.01336956    -0.01900
C3103       C  0.53866310  0.33610341  0.00253597     0.08100
C3104       C  0.55708362  0.35181966  0.99084312    -0.02000
Br3105     Br  0.58241932  0.33081836  0.97454611    -0.00600
Br3106     Br  0.57992512  0.40201810  0.97244969    -0.00700
Br3107     Br  0.99264531  0.33371890  0.02921138    -0.00600
Br3108     Br  0.99474203  0.40495647  0.02988523    -0.00600
C3109       C  0.02353402  0.13404818  0.98863271    -0.01700
C3110       C  0.54247998  0.14971052  0.00010603     0.07900
C3111       C  0.56075983  0.13283172  0.01166104    -0.01900
C3112       C  0.55999898  0.10183269  0.01186147    -0.01900
C3113       C  0.54084515  0.08617683  0.00053313     0.08100
C3114       C  0.02258272  0.10307271  0.98894359    -0.02000
Br3115     Br  0.99671940  0.08377573  0.97258431    -0.00600
Br3116     Br  0.99988823  0.15494598  0.97129028    -0.00700
Br3117     Br  0.58426091  0.08098891  0.02887779    -0.00600
Br3118     Br  0.58611214  0.15216105  0.02828030    -0.00600
C3119       C  0.01730507  0.46697026  0.91629452    -0.01700
C3120       C  0.53070541  0.48761290  0.90515961     0.07900
C3121       C  0.54810751  0.00842921  0.91337067    -0.01900
C3122       C  0.55061677  0.01005860  0.93260408    -0.01900
C3123       C  0.53667018  0.48999813  0.94387973     0.08100
C3124       C  0.02030724  0.46810249  0.93551178    -0.02000
Br3125     Br  0.00211615  0.43932530  0.95034939    -0.00600
Br3126     Br  0.99436328  0.43751164  0.90516953    -0.00700
Br3127     Br  0.57103543  0.04155033  0.94348089    -0.00600
Br3128     Br  0.56852340  0.03500846  0.89812404    -0.00600
C3129       C  0.75888568  0.25744869  0.57352561    -0.01700
C3130       C  0.75174563  0.23319220  0.56248135     0.07900
C3131       C  0.74585617  0.20666755  0.57153162    -0.01900
C3132       C  0.74769285  0.20460174  0.59075236    -0.01900
C3133       C  0.75250644  0.22925100  0.60142457     0.08100
C3134       C  0.75791764  0.25564872  0.59279018    -0.02000
Br3135     Br  0.76457302  0.28934639  0.60770272    -0.00600
Br3136     Br  0.77230200  0.29302798  0.56307842    -0.00700
Br3137     Br  0.74409037  0.16772341  0.60273576    -0.00600
Br3138     Br  0.73376329  0.17265059  0.55846440    -0.00600
C3139       C  0.74586430  0.04585302  0.57261488    -0.01700
C3140       C  0.73421721  0.02408855  0.56117583     0.07900
C3141       C  0.72350234  0.49878741  0.56962523    -0.01900
C3142       C  0.72301891  0.49627950  0.58884033    -0.01900
C3143       C  0.73452291  0.01792005  0.59995586     0.08100
C3144       C  0.74631059  0.04247078  0.59181823    -0.02000
Br3145     Br  0.76329955  0.07136099  0.60727286    -0.00600
Br3146     Br  0.76299676  0.07991336  0.56248191    -0.00700
Br3147     Br  0.70608789  0.46313721  0.60028467    -0.00600
Br3148     Br  0.70918009  0.46681370  0.55554737    -0.00600
C3149       C  0.88978919  0.25682429  0.49241030    -0.01700
C3150       C  0.90671144  0.23985243  0.50467541     0.07900
C3151       C  0.89134563  0.22264289  0.51730638    -0.01900
C3152       C  0.86052590  0.22230150  0.51754671    -0.01900
C3153       C  0.84365264  0.23929721  0.50527806     0.08100
C3154       C  0.85898021  0.25642376  0.49262048    -0.02000
Br3155     Br  0.83770764  0.27784188  0.47436588    -0.00600
Br3156     Br  0.90901837  0.27975323  0.47442148    -0.00700
Br3157     Br  0.84118351  0.19903816  0.53535683    -0.00600
Br3158     Br  0.91253200  0.20048487  0.53523363    -0.00600
C3159       C  0.64058929  0.26333066  0.50072265    -0.01700
C3160       C  0.65735603  0.23786275  0.50481369     0.07900
C3161       C  0.64086797  0.21295018  0.50906593    -0.01900
C3162       C  0.60983969  0.21350296  0.50910316    -0.01900
C3163       C  0.59319383  0.23856930  0.50409013     0.08100
C3164       C  0.60964293  0.26347797  0.49997997    -0.02000
Br3165     Br  0.59018823  0.29879314  0.49262407    -0.00600
Br3166     Br  0.65939799  0.29936884  0.49596240    -0.00700
Br3167     Br  0.59043776  0.17963913  0.51766823    -0.00600
Br3168     Br  0.66030965  0.17736729  0.51592825    -0.00600
C3169       C  0.00910640  0.20646230  0.56892384    -0.01700
C3170       C  0.99734233  0.23111411  0.55991030     0.07900
C3171       C  0.48329811  0.25282533  0.57057256    -0.01900
C3172       C  0.48150130  0.24994863  0.58972536    -0.01900
C3173       C  0.99348340  0.22553186  0.59853862     0.08100
C3174       C  0.00644404  0.20344565  0.58801603    -0.02000
Br3175     Br  0.02102917  0.16907082  0.60002836    -0.00600
Br3176     Br  0.03143670  0.17763790  0.55582190    -0.00700
Br3177     Br  0.46235770  0.27952764  0.60411456    -0.00600
Br3178     Br  0.46592454  0.28689609  0.55956562    -0.00600
C3179       C  0.87351475  0.01334303  0.51187729    -0.01700
C3180       C  0.88914857  0.53491584  0.50254762     0.07900
C3181       C  0.87202443  0.55744829  0.49443855    -0.01900
C3182       C  0.84115844  0.55811892  0.49557462    -0.01900
C3183       C  0.82555474  0.53582297  0.50426801     0.08100
C3184       C  0.84266978  0.01385730  0.51275079    -0.02000
Br3185     Br  0.82389640  0.98537925  0.52750311    -0.00600
Br3186     Br  0.89396732  0.98293780  0.52475109    -0.00700
Br3187     Br  0.82039377  0.59031301  0.48495015    -0.00600
Br3188     Br  0.89027069  0.58742598  0.48067452    -0.00600
C3189       C  0.59208494  0.04924535  0.49104633    -0.01700
C3190       C  0.57579085  0.52991990  0.50201076     0.07900
C3191       C  0.59240362  0.51023662  0.51294122    -0.01900
C3192       C  0.62332894  0.51015324  0.51307528    -0.01900
C3193       C  0.63939964  0.53024195  0.50276549     0.08100
C3194       C  0.62298775  0.04942323  0.49148025    -0.02000
Br3195     Br  0.64296641  0.07456561  0.47505870    -0.00600
Br3196     Br  0.57222494  0.07440201  0.47403966    -0.00700
Br3197     Br  0.64375672  0.48238254  0.52800531    -0.00600
Br3198     Br  0.57310940  0.48378208  0.52882720    -0.00600
C3199       C  0.49089489  0.51902744  0.57006723    -0.01700
C3200       C  0.98190619  0.54245297  0.55864859     0.07900
C3201       C  0.97282825  0.06888140  0.56729395    -0.01900
C3202       C  0.97208380  0.07110653  0.58660209    -0.01900
C3203       C  0.98081778  0.54755494  0.59762085     0.08100
C3204       C  0.49043280  0.52178674  0.58928642    -0.02000
Br3205     Br  0.50346703  0.49013695  0.60459302    -0.00600
Br3206     Br  0.50516382  0.48275077  0.56018349    -0.00700
Br3207     Br  0.95822414  0.10604517  0.59833270    -0.00600
Br3208     Br  0.96037231  0.10226177  0.55337432    -0.00600
C3209       C  0.78246656  0.22925291  0.42056780    -0.01700
C3210       C  0.76390299  0.24750569  0.41044511     0.07900
C3211       C  0.74264523  0.26392729  0.41961113    -0.01900
C3212       C  0.73914621  0.26141385  0.43864727    -0.01900
C3213       C  0.75700859  0.24243254  0.44883980     0.08100
C3214       C  0.77874197  0.22625193  0.43964024    -0.02000
Br3215     Br  0.80370992  0.19998007  0.45293746    -0.00600
Br3216     Br  0.81305496  0.20859613  0.40817458    -0.00700
Br3217     Br  0.70812501  0.28238877  0.45039893    -0.00600
Br3218     Br  0.71796222  0.28976623  0.40582390    -0.00600
C3219       C  0.71343446  0.52041109  0.43771770    -0.01700
C3220       C  0.73007821  0.54026699  0.44770473     0.07900
C3221       C  0.74620567  0.56075565  0.43796502    -0.01900
C3222       C  0.74804993  0.55930654  0.41873284    -0.01900
C3223       C  0.73229207  0.53879213  0.40892028     0.08100
C3224       C  0.71473159  0.51958819  0.41847433    -0.02000
Br3225     Br  0.69306722  0.49146147  0.40514581    -0.00600
Br3226     Br  0.68677242  0.49581743  0.45017239    -0.00700
Br3227     Br  0.77312764  0.58470027  0.40570319    -0.00600
Br3228     Br  0.76556707  0.09140113  0.45054999    -0.00600
C3229       C  0.51451543  0.26908647  0.43770933    -0.01700
C3230       C  0.99659806  0.24939166  0.44689965     0.07900
C3231       C  0.97708973  0.23300976  0.43647090    -0.01900
C3232       C  0.97621621  0.23558235  0.41726037    -0.01900
C3233       C  0.99565609  0.25345132  0.40818869     0.08100
C3234       C  0.51448786  0.27053540  0.41844902    -0.02000
Br3235     Br  0.54069658  0.29545931  0.40591437    -0.00600
Br3236     Br  0.54014620  0.29343119  0.45119545    -0.00700
Br3237     Br  0.94845997  0.21452919  0.40320881    -0.00600
Br3238     Br  0.95072855  0.20750889  0.44833504    -0.00600
C3239       C  0.89364240  0.30602803  0.33362425    -0.01700
C3240       C  0.90808628  0.27930847  0.33573878     0.07900
C3241       C  0.89283562  0.25386503  0.33878530    -0.01900
C3242       C  0.86302467  0.25519368  0.33997618    -0.01900
C3243       C  0.84850408  0.28195311  0.33804035     0.08100
C3244       C  0.86363674  0.30735142  0.33475226    -0.02000
Br3245     Br  0.84316473  0.34358258  0.33200031    -0.00600
Br3246     Br  0.91512866  0.34053156  0.32962315    -0.00700
Br3247     Br  0.84201750  0.22025972  0.34429462    -0.00600
Br3248     Br  0.91287425  0.21716591  0.34150462    -0.00600
C3249       C  0.61611287  0.19191879  0.34722860    -0.01700
C3250       C  0.60232050  0.21873737  0.35006480     0.07900
C3251       C  0.61783889  0.24309443  0.35528791    -0.01900
C3252       C  0.64765663  0.24122577  0.35605723    -0.01900
C3253       C  0.66171746  0.21491890  0.35173170     0.08100
C3254       C  0.64608314  0.18986973  0.34836494    -0.02000
Br3255     Br  0.66606457  0.15371182  0.34438499    -0.00600
Br3256     Br  0.59373375  0.15909935  0.34058254    -0.00700
Br3257     Br  0.66935092  0.27550244  0.36106339    -0.00600
Br3258     Br  0.59835241  0.27968416  0.35957773    -0.00600
C3259       C  0.50224066  0.49901419  0.43757329    -0.01700
C3260       C  0.98284491  0.51957650  0.44522221     0.07900
C3261       C  0.96326408  0.03420663  0.43344882    -0.01900
C3262       C  0.96315358  0.02835282  0.41447116    -0.01900
C3263       C  0.98185487  0.00713090  0.40706445     0.08100
C3264       C  0.50122959  0.49233517  0.41875665    -0.02000
Br3265     Br  0.52683084  0.46318330  0.40874728    -0.00600
Br3266     Br  0.53189013  0.48141871  0.45253569    -0.00700
Br3267     Br  0.93812228  0.05015835  0.39837652    -0.00600
Br3268     Br  0.93551632  0.06132258  0.44323397    -0.00600
C3269       C  0.85200662  0.01453498  0.34818134    -0.01700
C3270       C  0.83182234  0.49294691  0.34469063     0.07900
C3271       C  0.84057767  0.46510588  0.33903923    -0.01900
C3272       C  0.86984732  0.45861641  0.33706153    -0.01900
C3273       C  0.88995344  0.98065915  0.33981650     0.08100
C3274       C  0.88094234  0.00875444  0.34483947    -0.02000
Br3275     Br  0.90799324  0.03980512  0.34587207    -0.00600
Br3276     Br  0.83973026  0.05228520  0.35672596    -0.00700
Br3277     Br  0.88262344  0.42044925  0.33002310    -0.00600
Br3278     Br  0.81236061  0.43657212  0.33332857    -0.00600
C3279       C  0.61717913  0.06830147  0.33297200    -0.01700
C3280       C  0.63833141  0.55106441  0.34180627     0.07900
C3281       C  0.63125456  0.52495103  0.35047149    -0.01900
C3282       C  0.60281563  0.51649035  0.35104390    -0.01900
C3283       C  0.58196326  0.03301465  0.34140184     0.08100
C3284       C  0.58882370  0.05900172  0.33273411    -0.02000
Br3285     Br  0.55941661  0.08115316  0.32019380    -0.00600
Br3286     Br  0.62773774  0.10129281  0.31870453    -0.00700
Br3287     Br  0.59265824  0.48220941  0.36440214    -0.00600
Br3288     Br  0.66068258  0.49806198  0.35881207    -0.00600
C3289       C  0.69688134  0.27117244  0.09043579    -0.01700
C3290       C  0.71903966  0.26047031  0.10171742     0.07900
C3291       C  0.74344913  0.24725787  0.09381394    -0.01900
C3292       C  0.74519731  0.24334257  0.07473570    -0.01900
C3293       C  0.72275702  0.25369275  0.06315715     0.08100
C3294       C  0.69898437  0.26858885  0.07126867    -0.02000
Br3295     Br  0.66959803  0.28735600  0.05658348    -0.00600
Br3296     Br  0.66336369  0.28907048  0.10143892    -0.00700
Br3297     Br  0.77808763  0.22229754  0.06519960    -0.00600
Br3298     Br  0.77424163  0.23365974  0.10951209    -0.00600
C3299       C  0.71869872  0.27745134  0.24737134    -0.01700
C3300       C  0.73044210  0.25453258  0.23685811     0.07900
C3301       C  0.74574476  0.23198041  0.24568375    -0.01900
C3302       C  0.74929084  0.23235233  0.26481370    -0.01900
C3303       C  0.73858996  0.25582752  0.27522881     0.08100
C3304       C  0.72312509  0.27831014  0.26643598    -0.02000
Br3305     Br  0.70776872  0.31013587  0.28059350    -0.00600
Br3306     Br  0.69628984  0.30756305  0.23558969    -0.00700
Br3307     Br  0.76866556  0.20053043  0.27688944    -0.00600
Br3308     Br  0.76267700  0.20099586  0.23148113    -0.00600
C3309       C  0.70356512  0.48891140  0.09092062    -0.01700
C3310       C  0.72599002  0.00235844  0.10017821     0.07900
C3311       C  0.74966891  0.01216656  0.09031762    -0.01900
C3312       C  0.75057806  0.00938200  0.07115513    -0.01900
C3313       C  0.72737390  0.99679785  0.06151146     0.08100
C3314       C  0.70434195  0.48566174  0.07175637    -0.02000
Br3315     Br  0.67472018  0.46332987  0.06024866    -0.00600
Br3316     Br  0.67202331  0.47391554  0.10485223    -0.00700
Br3317     Br  0.78437185  0.02295404  0.05887354    -0.00600
Br3318     Br  0.78116014  0.02928112  0.10339987    -0.00600
C3319       C  0.78529338  0.36532968  0.16585675    -0.01700
C3320       C  0.75964830  0.35321945  0.17203370     0.07900
C3321       C  0.73742107  0.37082527  0.17912953    -0.01900
C3322       C  0.74029469  0.40074002  0.17931046    -0.01900
C3323       C  0.76571826  0.41305298  0.17276726     0.08100
C3324       C  0.78852350  0.39538433  0.16649701    -0.02000
Br3325     Br  0.82296368  0.41267725  0.15752092    -0.00600
Br3326     Br  0.81476976  0.34088566  0.15531218    -0.00700
Br3327     Br  0.70796300  0.42484509  0.18663245    -0.00600
Br3328     Br  0.70187703  0.35405872  0.18706269    -0.00600
C3329       C  0.66364425  0.11683329  0.16653836    -0.01700
C3330       C  0.68984848  0.10185213  0.16921311     0.07900
C3331       C  0.71514415  0.11702646  0.17278184    -0.01900
C3332       C  0.71437001  0.14716116  0.17336367    -0.01900
C3333       C  0.68824725  0.16228025  0.17053803     0.08100
C3334       C  0.66287938  0.14720675  0.16706302    -0.02000
Br3335     Br  0.62778764  0.16832241  0.16202728    -0.00600
Br3336     Br  0.62929768  0.09567243  0.16175911    -0.00700
Br3337     Br  0.74967763  0.16781579  0.17665337    -0.00600
Br3338     Br  0.75132895  0.09653574  0.17603280    -0.00600
C3339       C  0.74408311  0.04329305  0.26235999    -0.01700
C3340       C  0.73700121  0.51990930  0.27360938     0.07900
C3341       C  0.72914545  0.49342422  0.26574433    -0.01900
C3342       C  0.72762876  0.49054112  0.24660802    -0.01900
C3343       C  0.73519314  0.51383057  0.23522598     0.08100
C3344       C  0.74381382  0.04010376  0.24326043    -0.02000
Br3345     Br  0.75573582  0.07174654  0.22812751    -0.00600
Br3346     Br  0.75352332  0.07988763  0.27323118    -0.00700
Br3347     Br  0.71406877  0.45502809  0.23614954    -0.00600
Br3348     Br  0.71966557  0.46142184  0.28131486    -0.00600
C3349       C  0.01556227  0.24364719  0.08876213    -0.01700
C3350       C  0.54140586  0.23857893  0.09833818     0.07900
C3351       C  0.56653915  0.23181418  0.08853984    -0.01900
C3352       C  0.56613980  0.23036602  0.06922872    -0.01900
C3353       C  0.54064328  0.23740472  0.05922298     0.08100
C3354       C  0.01493800  0.24295688  0.06944409    -0.02000
Br3355     Br  0.97800744  0.24906138  0.05781492    -0.00600
Br3356     Br  0.98093845  0.25204151  0.10239990    -0.00700
Br3357     Br  0.60043002  0.21581287  0.05728790    -0.00600
Br3358     Br  0.60164249  0.22415615  0.10189376    -0.00600
C3359       C  0.01273559  0.27057453  0.26181738    -0.01700
C3360       C  0.01835845  0.24633427  0.27302767     0.07900
C3361       C  0.52895170  0.22045916  0.26488816    -0.01900
C3362       C  0.53541865  0.21951894  0.24606765    -0.01900
C3363       C  0.02846827  0.24334202  0.23471426     0.08100
C3364       C  0.01652231  0.26867931  0.24272286    -0.02000
Br3365     Br  0.00447683  0.30082810  0.22765336    -0.00600
Br3366     Br  0.00101757  0.30697072  0.27264892    -0.00700
Br3367     Br  0.55506617  0.18604306  0.23604317    -0.00600
Br3368     Br  0.53374134  0.18587259  0.27937669    -0.00600
C3369       C  0.56002901  0.49793898  0.06933824    -0.01700
C3370       C  0.53615846  0.99091773  0.05796119     0.07900
C3371       C  0.01026532  0.98239899  0.06670042    -0.01900
C3372       C  0.00833761  0.98143636  0.08591075    -0.01900
C3373       C  0.53154771  0.98951763  0.09686493     0.08100
C3374       C  0.55755528  0.49728055  0.08862067    -0.02000
Br3375     Br  0.58956379  0.50737412  0.10398795    -0.00600
Br3376     Br  0.59611904  0.50981061  0.05915781    -0.00700
Br3377     Br  0.97376565  0.96844393  0.09767089    -0.00600
Br3378     Br  0.97643856  0.97142934  0.05323513    -0.00600
C3379       C  0.58835114  0.35314830  0.16702336    -0.01700
C3380       C  0.56448352  0.33594631  0.17042554     0.07900
C3381       C  0.03743866  0.34870252  0.17428018    -0.01900
C3382       C  0.03411394  0.37870635  0.17420693    -0.01900
C3383       C  0.55781973  0.39602149  0.17020461     0.08100
C3384       C  0.58488798  0.38331628  0.16646025    -0.02000
Br3385     Br  0.61625596  0.40693133  0.15891490    -0.00600
Br3386     Br  0.62525890  0.33506520  0.16264946    -0.00700
Br3387     Br  0.99635685  0.39594961  0.17758515    -0.00600
Br3388     Br  0.00442527  0.32501061  0.17847138    -0.00600
C3389       C  0.51783771  0.12674585  0.17259046    -0.01700
C3390       C  0.49595549  0.14625003  0.16723959     0.07900
C3391       C  0.96929326  0.13621356  0.16127943    -0.01900
C3392       C  0.96527400  0.10639005  0.15924464    -0.01900
C3393       C  0.48716167  0.08689549  0.16465207     0.08100
C3394       C  0.51320925  0.09712629  0.17172635    -0.02000
Br3395     Br  0.54353680  0.07049387  0.17907859    -0.00600
Br3396     Br  0.55497423  0.14060153  0.17989303    -0.00700
Br3397     Br  0.93101695  0.09240940  0.14783187    -0.00600
Br3398     Br  0.93883371  0.16348057  0.15568527    -0.00600
C3399       C  0.98702128  0.46486954  0.25986943    -0.01700
C3400       C  0.99513570  0.98864449  0.27077582     0.07900
C3401       C  0.50538126  0.01359502  0.26196923    -0.01900
C3402       C  0.51011920  0.01369524  0.24289272    -0.01900
C3403       C  0.00115009  0.99044624  0.23191778     0.08100
C3404       C  0.98881841  0.46638314  0.24058942    -0.02000
Br3405     Br  0.97416524  0.43538642  0.22585634    -0.00600
Br3406     Br  0.97473721  0.42962572  0.27116448    -0.00700
Br3407     Br  0.53085577  0.04490141  0.23199307    -0.00600
Br3408     Br  0.51149368  0.04851545  0.27574721    -0.00600
N3409       N  0.50425358  0.51620971  0.14236834    -0.36500
N3410       N  0.53892043  0.96465603  0.14565322    -0.57100
N3411       N  0.02751684  0.96461900  0.18553577    -0.36500
N3412       N  0.99503995  0.51582267  0.18276309    -0.57100
C3413       C  0.51679542  0.51505791  0.12566532     0.27100
C3414       C  0.49711383  0.54413623  0.14562564     0.27100
C3415       C  0.04803175  0.94394147  0.18373085     0.27100
C3416       C  0.02583014  0.97158580  0.20351863     0.27100
C3417       C  0.53560539  0.96514291  0.12729408     0.35700
C3418       C  0.54634200  0.93724213  0.14996708     0.35700
C3419       C  0.97936713  0.53919103  0.17777137     0.35700
C3420       C  0.98953233  0.51086270  0.20061367     0.35700
C3421       C  0.51622825  0.54218801  0.11781478    -0.21800
C3422       C  0.50421075  0.56064978  0.13050769    -0.21800
C3423       C  0.05964807  0.93750854  0.20071629    -0.21800
C3424       C  0.04585845  0.95521543  0.21320209    -0.21800
C3425       C  0.54170354  0.93826652  0.11986283    -0.22800
C3426       C  0.54818031  0.92042712  0.13427164    -0.22800
C3427       C  0.96346523  0.54918001  0.19256292    -0.22800
C3428       C  0.96948924  0.53089747  0.20695709    -0.22800
C3429       C  0.52829104  0.48997080  0.11724260    -0.18200
C3430       C  0.48505595  0.55547986  0.16196897    -0.18200
C3431       C  0.00525703  0.49081900  0.21152838    -0.18200
C3432       C  0.55240575  0.92731539  0.16780416    -0.18200
H3433       H  0.52440438  0.54819507  0.10455845     0.14700
H3434       H  0.50116828  0.58370428  0.12880296     0.14700
H3435       H  0.07567634  0.92103142  0.20382192     0.14700
H3436       H  0.04945637  0.95528447  0.22780925     0.14700
H3437       H  0.54121113  0.93211497  0.10560027     0.13000
H3438       H  0.55384862  0.89772129  0.13326282     0.13000
H3439       H  0.95017045  0.56856583  0.19314436     0.13000
H3440       H  0.96151309  0.53326596  0.22075694     0.13000
H3441       H  0.49955529  0.49878549  0.15070138     0.26300
H3442       H  0.01263422  0.96977346  0.17542357     0.26300
N3443       N  0.55579503  0.76515738  0.14647406    -0.36500
N3444       N  0.05121407  0.76520987  0.18725344    -0.57100
N3445       N  0.02135364  0.71378650  0.18642453    -0.36500
N3446       N  0.52347453  0.71359774  0.14575531    -0.57100
C3447       C  0.56004693  0.79317489  0.15055864     0.27100
C3448       C  0.54932482  0.76376279  0.12841204     0.27100
C3449       C  0.01630028  0.72164346  0.20400700     0.27100
C3450       C  0.00230323  0.69348405  0.18200397     0.27100
C3451       C  0.06777894  0.78807541  0.18422593     0.35700
C3452       C  0.05195370  0.76000192  0.20540249     0.35700
C3453       C  0.53202514  0.71386704  0.12808124     0.35700
C3454       C  0.51463854  0.68657714  0.14911105     0.35700
C3455       C  0.55738347  0.80959248  0.13474096    -0.21800
C3456       C  0.55102949  0.79092271  0.12071963    -0.21800
C3457       C  0.99362114  0.70601284  0.21078039    -0.21800
C3458       C  0.98506091  0.68789550  0.19693857    -0.21800
C3459       C  0.07959030  0.79738821  0.20055843    -0.22800
C3460       C  0.07003259  0.77915890  0.21397044    -0.22800
C3461       C  0.52792353  0.68722194  0.12005825    -0.22800
C3462       C  0.51714415  0.66980801  0.13342710    -0.22800
C3463       C  0.56638827  0.80444495  0.16810374    -0.18200
C3464       C  0.54162324  0.73854351  0.11883706    -0.18200
C3465       C  0.50317043  0.67701629  0.16586857    -0.18200
C3466       C  0.03290312  0.74126695  0.21425838    -0.18200
H3467       H  0.55975900  0.83268215  0.13340838     0.14700
H3468       H  0.54719186  0.79680615  0.10661264     0.14700
H3469       H  0.98471110  0.70694725  0.22440916     0.14700
H3470       H  0.96844014  0.67198956  0.19784142     0.14700
H3471       H  0.09246382  0.81629069  0.20267518     0.13000
H3472       H  0.07416198  0.78114293  0.22846412     0.13000
H3473       H  0.53226315  0.68101476  0.10606096     0.13000
H3474       H  0.51144707  0.64743358  0.13170728     0.13000
H3475       H  0.55863361  0.74785599  0.15537167     0.26300
H3476       H  0.03925391  0.71843974  0.17859893     0.26300
N3477       N  0.74671788  0.98094783  0.14784048    -0.36500
N3478       N  0.74916970  0.98449193  0.18806007    -0.57100
N3479       N  0.71375667  0.53383353  0.18715226    -0.36500
N3480       N  0.70906913  0.53113110  0.14714019    -0.57100
C3481       C  0.75480071  0.95369803  0.15227628     0.27100
C3482       C  0.73719123  0.98025373  0.13037355     0.27100
C3483       C  0.71286356  0.52807643  0.20525874     0.27100
C3484       C  0.69340356  0.55402842  0.18361132     0.27100
C3485       C  0.76741026  0.96231514  0.18486055     0.35700
C3486       C  0.75228807  0.99193534  0.20574370     0.35700
C3487       C  0.71571112  0.52933697  0.12918770     0.35700
C3488       C  0.70024751  0.55866161  0.15013689     0.35700
C3489       C  0.75128183  0.93577579  0.13723277    -0.21800
C3490       C  0.74072179  0.95267795  0.12331393    -0.21800
C3491       C  0.69100377  0.54442260  0.21324334    -0.21800
C3492       C  0.67907052  0.56125108  0.19958677    -0.21800
C3493       C  0.78254711  0.95549109  0.20062192    -0.22800
C3494       C  0.77344782  0.97480438  0.21381231    -0.22800
C3495       C  0.70992027  0.55538876  0.12059049    -0.22800
C3496       C  0.70049820  0.57415196  0.13394344    -0.22800
C3497       C  0.76518094  0.94435366  0.16949472    -0.18200
C3498       C  0.72631282  0.50413837  0.12049420    -0.18200
C3499       C  0.69210203  0.57005309  0.16732542    -0.18200
C3500       C  0.73344982  0.01125543  0.21492417    -0.18200
H3501       H  0.75593548  0.91285991  0.13627841     0.14700
H3502       H  0.73558548  0.94527535  0.10969515     0.14700
H3503       H  0.68541596  0.54542263  0.22757421     0.14700
H3504       H  0.66267617  0.57786997  0.20132687     0.14700
H3505       H  0.79751853  0.93761871  0.20256987     0.13000
H3506       H  0.78018399  0.97488809  0.22796306     0.13000
H3507       H  0.71281665  0.56049748  0.10630278     0.13000
H3508       H  0.69448718  0.59661055  0.13196609     0.13000
H3509       H  0.74915279  0.99926703  0.15586760     0.26300
H3510       H  0.73047398  0.52879545  0.17828517     0.26300
N3511       N  0.73462350  0.78553265  0.14923986    -0.36500
N3512       N  0.74015319  0.78247317  0.18930209    -0.57100
N3513       N  0.70945259  0.73069685  0.18925806    -0.36500
N3514       N  0.70129854  0.73389420  0.14918403    -0.57100
C3515       C  0.74183516  0.81285896  0.15336325     0.27100
C3516       C  0.72469768  0.78563267  0.13185130     0.27100
C3517       C  0.70951140  0.73609989  0.20746478     0.27100
C3518       C  0.69097928  0.70925823  0.18616017     0.27100
C3519       C  0.75703443  0.80492542  0.18570834     0.35700
C3520       C  0.74473106  0.77529375  0.20693147     0.35700
C3521       C  0.70651930  0.73592126  0.13104760     0.35700
C3522       C  0.69445556  0.70612528  0.15222812     0.35700
C3523       C  0.73665728  0.83048404  0.13832896    -0.21800
C3524       C  0.72633983  0.81313957  0.12463594    -0.21800
C3525       C  0.69041577  0.71798465  0.21600960    -0.21800
C3526       C  0.67903277  0.70070125  0.20255470    -0.21800
C3527       C  0.77263545  0.81215026  0.20113984    -0.22800
C3528       C  0.76504112  0.79311778  0.21458521    -0.22800
C3529       C  0.70146708  0.70986645  0.12245614    -0.22800
C3530       C  0.69414170  0.69088607  0.13590068    -0.22800
C3531       C  0.75432886  0.82209142  0.16995939    -0.18200
C3532       C  0.71592702  0.76100589  0.12213639    -0.18200
C3533       C  0.68902415  0.69398144  0.16954880    -0.18200
C3534       C  0.72833916  0.75506396  0.21655624    -0.18200
H3535       H  0.74057317  0.85335578  0.13716590     0.14700
H3536       H  0.72060676  0.82004254  0.11097914     0.14700
H3537       H  0.68615523  0.71645493  0.23049742     0.14700
H3538       H  0.66442934  0.68314170  0.20462935     0.14700
H3539       H  0.78707302  0.82999560  0.20270963     0.13000
H3540       H  0.77260507  0.79323522  0.22856876     0.13000
H3541       H  0.70356329  0.70481916  0.10807831     0.13000
H3542       H  0.68941438  0.66833006  0.13388201     0.13000
H3543       H  0.73903190  0.76736521  0.15713338     0.26300
H3544       H  0.72443498  0.73741214  0.17979569     0.26300
N3545       N  0.51376380  0.50793935  0.36001747    -0.36500
N3546       N  0.95965690  0.48505123  0.35927625    -0.57100
N3547       N  0.96249154  0.47760895  0.31815531    -0.36500
N3548       N  0.51752023  0.50136751  0.31949172    -0.57100
C3549       C  0.50500346  0.51563347  0.37698385     0.27100
C3550       C  0.53531920  0.52532802  0.35559539     0.27100
C3551       C  0.93404887  0.47860618  0.32142982     0.27100
C3552       C  0.96629430  0.48429484  0.30024444     0.27100
C3553       C  0.96241037  0.48569240  0.37769054     0.35700
C3554       C  0.93510702  0.47163439  0.35550518     0.35700
C3555       C  0.54481358  0.50690170  0.32411743     0.35700
C3556       C  0.51810090  0.49140673  0.30209711     0.35700
C3557       C  0.52142756  0.53800698  0.38348605    -0.21800
C3558       C  0.54063631  0.54420610  0.36991151    -0.21800
C3559       C  0.91951524  0.48477670  0.30525574    -0.21800
C3560       C  0.93989215  0.48822524  0.29187795    -0.21800
C3561       C  0.93968835  0.47201718  0.38580277    -0.22800
C3562       C  0.92219133  0.46332658  0.37173722    -0.22800
C3563       C  0.56298434  0.50010319  0.30967098    -0.22800
C3564       C  0.54599105  0.49027265  0.29568338    -0.22800
C3565       C  0.98323447  0.50199882  0.38688289    -0.18200
C3566       C  0.55288085  0.52152761  0.34020896    -0.18200
C3567       C  0.99317593  0.48719035  0.29148895    -0.18200
C3568       C  0.92074737  0.47426334  0.33858517    -0.18200
H3569       H  0.51990033  0.54854806  0.39666046     0.14700
H3570       H  0.55721936  0.56018240  0.37068845     0.14700
H3571       H  0.89656413  0.48690004  0.30331430     0.14700
H3572       H  0.93577003  0.49373551  0.27774398     0.14700
H3573       H  0.93526516  0.47021090  0.40025669     0.13000
H3574       H  0.90135239  0.45375938  0.37328144     0.13000
H3575       H  0.58592460  0.50303389  0.30902853     0.13000
H3576       H  0.55314548  0.48409089  0.28215313     0.13000
H3577       H  0.50850331  0.48937398  0.35281815     0.26300
H3578       H  0.97818294  0.47128381  0.32754559     0.26300
N3579       N  0.52968312  0.73874230  0.36249132    -0.36500
N3580       N  0.97578391  0.76517964  0.35857302    -0.57100
N3581       N  0.98239248  0.76417320  0.31810530    -0.36500
N3582       N  0.53694963  0.73624989  0.32245486    -0.57100
C3583       C  0.52012322  0.73577651  0.37979560     0.27100
C3584       C  0.55277895  0.72125873  0.36064318     0.27100
C3585       C  0.95380656  0.76780724  0.32004060     0.27100
C3586       C  0.98721895  0.75431593  0.30089189     0.27100
C3587       C  0.97818551  0.76849747  0.37685937     0.35700
C3588       C  0.95256267  0.78059946  0.35331053     0.35700
C3589       C  0.56412135  0.73205215  0.32824325     0.35700
C3590       C  0.53868117  0.74413435  0.30472722     0.35700
C3591       C  0.53727887  0.71583882  0.38901669    -0.21800
C3592       C  0.55812292  0.70678886  0.37690299    -0.21800
C3593       C  0.94031443  0.76088431  0.30370274    -0.21800
C3594       C  0.96145497  0.75236778  0.29161514    -0.21800
C3595       C  0.95646744  0.78642324  0.38334531    -0.22800
C3596       C  0.93997842  0.79387170  0.36842326    -0.22800
C3597       C  0.58317348  0.73690302  0.31408384    -0.22800
C3598       C  0.56697739  0.74453021  0.29912737    -0.22800
C3599       C  0.99801842  0.75286840  0.38772678    -0.18200
C3600       C  0.57185805  0.72261339  0.34591232    -0.18200
C3601       C  0.01460054  0.74856029  0.29328369    -0.18200
C3602       C  0.93961170  0.77788812  0.33598666    -0.18200
H3603       H  0.53565433  0.70940157  0.40317440     0.14700
H3604       H  0.57592956  0.69224763  0.37993374     0.14700
H3605       H  0.91757314  0.76193498  0.30075899     0.14700
H3606       H  0.95826302  0.74558056  0.27761860     0.14700
H3607       H  0.95218935  0.79232616  0.39740036     0.13000
H3608       H  0.92028205  0.80657355  0.36878815     0.13000
H3609       H  0.60629643  0.73490288  0.31444164     0.13000
H3610       H  0.57502094  0.74954776  0.28566823     0.13000
H3611       H  0.52433333  0.75524600  0.35343406     0.26300
H3612       H  0.99776844  0.77046804  0.32754629     0.26300
N3613       N  0.70913907  0.04872300  0.35971232    -0.36500
N3614       N  0.70905694  0.04393552  0.31918080    -0.57100
N3615       N  0.76313181  0.01428209  0.32214504    -0.36500
N3616       N  0.76290122  0.02093224  0.36257050    -0.57100
C3617       C  0.68497728  0.06324864  0.35506974     0.27100
C3618       C  0.71362452  0.05273485  0.37783253     0.27100
C3619       C  0.76197246  0.01934406  0.30393865     0.27100
C3620       C  0.79091610  0.00972401  0.32646494     0.27100
C3621       C  0.68085197  0.04778186  0.32242460     0.35700
C3622       C  0.71093796  0.03262534  0.30217336     0.35700
C3623       C  0.75669506  0.02092269  0.38056869     0.35700
C3624       C  0.78631368  0.00401700  0.36034242     0.35700
C3625       C  0.67411094  0.07743152  0.37034408    -0.21800
C3626       C  0.69238949  0.07105100  0.38469322    -0.21800
C3627       C  0.78915867  0.01745254  0.29651472    -0.21800
C3628       C  0.80753193  0.01167585  0.31075972    -0.21800
C3629       C  0.66503553  0.03973882  0.30716302    -0.22800
C3630       C  0.68421537  0.03080987  0.29418464    -0.22800
C3631       C  0.77656737  0.00398871  0.38996008    -0.22800
C3632       C  0.79550236  0.99334359  0.37709903    -0.22800
C3633       C  0.66894655  0.05716789  0.33918938    -0.18200
C3634       C  0.73426410  0.03747967  0.38854825    -0.18200
C3635       C  0.80155419  0.00151333  0.34383212    -0.18200
C3636       C  0.73665184  0.02382325  0.29382177    -0.18200
H3637       H  0.65398227  0.08935638  0.37128697     0.14700
H3638       H  0.68929170  0.07753090  0.39877240     0.14700
H3639       H  0.79511932  0.01985567  0.28232868     0.14700
H3640       H  0.83051045  0.00860049  0.30956689     0.14700
H3641       H  0.64200881  0.03967421  0.30551146     0.13000
H3642       H  0.67898182  0.02264514  0.28075469     0.13000
H3643       H  0.77765493  0.00022278  0.40453206     0.13000
H3644       H  0.81426868  0.97990448  0.37978981     0.13000
H3645       H  0.71812512  0.03257788  0.35162956     0.26300
H3646       H  0.74582121  0.01068045  0.33072130     0.26300
N3647       N  0.73381414  0.73235742  0.36403180    -0.36500
N3648       N  0.72460363  0.73562019  0.32401738    -0.57100
N3649       N  0.77398072  0.77108635  0.32107766    -0.36500
N3650       N  0.78337979  0.76506555  0.36150697    -0.57100
C3651       C  0.71177605  0.71441259  0.36183255     0.27100
C3652       C  0.74325779  0.72929262  0.38143159     0.27100
C3653       C  0.76894480  0.76548808  0.30314166     0.27100
C3654       C  0.80209631  0.77712450  0.32268906     0.27100
C3655       C  0.69898148  0.72573034  0.32941053     0.35700
C3656       C  0.72101184  0.74444286  0.30652873     0.35700
C3657       C  0.78232100  0.76449218  0.37994982     0.35700
C3658       C  0.80542638  0.78171077  0.35688538     0.35700
C3659       C  0.70714687  0.69943037  0.37788665    -0.21800
C3660       C  0.72726392  0.70861540  0.39024582    -0.21800
C3661       C  0.79363638  0.76977888  0.29315169    -0.21800
C3662       C  0.81465830  0.77667335  0.30548928    -0.21800
C3663       C  0.67943401  0.72740881  0.31510249    -0.22800
C3664       C  0.69351891  0.73892691  0.30053925    -0.22800
C3665       C  0.80379494  0.78120533  0.38722332    -0.22800
C3666       C  0.81880400  0.79174202  0.37256770    -0.22800
C3667       C  0.69237787  0.71597115  0.34717900    -0.18200
C3668       C  0.76369152  0.74693850  0.39003417    -0.18200
C3669       C  0.81709006  0.78272857  0.33915374    -0.18200
C3670       C  0.74272745  0.75614170  0.29563569    -0.18200
H3671       H  0.69010618  0.68454626  0.38065662     0.14700
H3672       H  0.72895226  0.70190756  0.40436599     0.14700
H3673       H  0.79651077  0.76724771  0.27857065     0.14700
H3674       H  0.83679700  0.78075315  0.30213608     0.14700
H3675       H  0.65728816  0.72095189  0.31512727     0.13000
H3676       H  0.68441183  0.74315465  0.28718347     0.13000
H3677       H  0.80900358  0.78419858  0.40150418     0.13000
H3678       H  0.83803767  0.80438973  0.37332254     0.13000
H3679       H  0.73791431  0.74914690  0.35531089     0.26300
H3680       H  0.75901981  0.77209051  0.33144297     0.26300
O3681       O  0.98283170  0.00302346  0.47615992    -0.72800
O3682       O  0.98098109  0.01439564  0.53076155    -0.73800
O3683       O  0.93718778  0.01034550  0.50283432    -0.62400
O3684       O  0.52752726  0.00763639  0.50402917    -0.70800
O3685       O  0.52780022  0.55436201  0.49978083    -0.70400
O3686       O  0.93742517  0.55735268  0.50021811    -0.61700
O3687       O  0.98327794  0.56122423  0.52751540    -0.74200
O3688       O  0.98221170  0.55021015  0.47213962    -0.72900
Cu3689     Cu  0.98213817  0.00734619  0.50355494     1.04600
Cu3690     Cu  0.98268570  0.55739400  0.49975026     1.04300
C3691       C  0.98261829  0.02472373  0.46542154     0.93400
C3692       C  0.98206545  0.03943561  0.53800973     0.92500
C3693       C  0.92281225  0.03430056  0.50169753     0.84600
C3694       C  0.54218494  0.03074524  0.50199146     0.90900
O3695       O  0.99922649  0.72082659  0.47419930    -0.72800
O3696       O  0.99949878  0.71169796  0.52918662    -0.73800
O3697       O  0.95474157  0.71627282  0.50217017    -0.62400
O3698       O  0.54510725  0.71567467  0.50172093    -0.70800
O3699       O  0.54468536  0.76270638  0.50483827    -0.70400
O3700       O  0.95425831  0.76362226  0.50523545    -0.61700
O3701       O  0.00016184  0.75902197  0.53209179    -0.74200
O3702       O  0.99856201  0.76829296  0.47743931    -0.72900
Cu3703     Cu  0.99976301  0.71454155  0.50165270     1.04600
Cu3704     Cu  0.99946329  0.76496395  0.50495587     1.04300
C3705       C  0.99832293  0.74606234  0.46709978     0.93400
C3706       C  0.99934491  0.73409322  0.53941349     0.92500
C3707       C  0.94018442  0.73999519  0.50400845     0.84600
C3708       C  0.55950879  0.73901203  0.50347816     0.90900
O3709       O  0.68595485  0.55536276  0.50511226    -0.72800
O3710       O  0.77636051  0.55822061  0.50596677    -0.73800
O3711       O  0.73085103  0.56090739  0.47808991    -0.62400
O3712       O  0.73086844  0.55257055  0.53335362    -0.70800
O3713       O  0.73503941  0.00541939  0.53031496    -0.70400
O3714       O  0.73322309  0.01342583  0.47557667    -0.61700
O3715       O  0.77886248  0.01109064  0.50267507    -0.74200
O3716       O  0.68861546  0.00807561  0.50293110    -0.72900
Cu3717     Cu  0.73097394  0.55837173  0.50576605     1.04600
Cu3718     Cu  0.73399024  0.00797722  0.50281251     1.04300
C3719       C  0.67287519  0.53120717  0.50364408     0.93400
C3720       C  0.79202850  0.53509575  0.50434024     0.92500
C3721       C  0.73150582  0.03829988  0.46810282     0.84600
C3722       C  0.73330570  0.52755858  0.54066325     0.90900
O3723       O  0.75238847  0.71266425  0.53190297    -0.72800
O3724       O  0.75298775  0.71618481  0.47689501    -0.73800
O3725       O  0.79707275  0.71516447  0.50465652    -0.62400
O3726       O  0.70664104  0.71420092  0.50412354    -0.70800
O3727       O  0.70557914  0.76135367  0.50565905    -0.70400
O3728       O  0.79558768  0.76268042  0.50641882    -0.61700
O3729       O  0.75204848  0.76388873  0.47854406    -0.74200
O3730       O  0.74981018  0.75998610  0.53369842    -0.72900
Cu3731     Cu  0.75218241  0.71298248  0.50437097     1.04600
Cu3732     Cu  0.75059586  0.76355016  0.50612452     1.04300
C3733       C  0.75135829  0.73549319  0.54168241     0.93400
C3734       C  0.75375699  0.74074076  0.46902887     0.92500
C3735       C  0.81061213  0.73910861  0.50545427     0.84600
C3736       C  0.69145247  0.73776734  0.50485899     0.90900
O3737       O  0.56318807  0.53720734  0.00115171    -0.72800
O3738       O  0.56143759  0.94690429  0.00054470    -0.73800
O3739       O  0.56186720  0.49226260  0.97283315    -0.62400
O3740       O  0.56178617  0.49109146  0.02880945    -0.70800
O3741       O  0.01478942  0.49497843  0.02812528    -0.70400
O3742       O  0.01435015  0.49312688  0.97327520    -0.61700
O3743       O  0.01425449  0.94855516  0.00120178    -0.74200
O3744       O  0.01600911  0.53927973  0.00034562    -0.72900
Cu3745     Cu  0.56372066  0.49191921  0.00083801     1.04600
Cu3746     Cu  0.01335103  0.49410133  0.00076180     1.04300
C3747       C  0.53995450  0.55266190  0.00071896     0.93400
C3748       C  0.53767364  0.93328791  0.00101257     0.92500
C3749       C  0.53784920  0.49214155  0.96427468     0.84600
C3750       C  0.53785485  0.49248969  0.03736989     0.90900
O3751       O  0.01631883  0.78789618  0.00309105    -0.72800
O3752       O  0.01851379  0.69769240  0.00036780    -0.73800
O3753       O  0.01759571  0.73987768  0.02935827    -0.62400
O3754       O  0.01782424  0.74517012  0.97434646    -0.70800
O3755       O  0.56524346  0.74524379  0.97440682    -0.70400
O3756       O  0.56454851  0.74121190  0.02979579    -0.61700
O3757       O  0.56566989  0.69760726  0.00097761    -0.74200
O3758       O  0.56349481  0.78828724  0.00304998    -0.72900
Cu3759     Cu  0.01604707  0.74264944  0.00180617     1.04600
Cu3760     Cu  0.56635700  0.74304427  0.00209056     1.04300
C3761       C  0.53949039  0.80253941  0.00304755     0.93400
C3762       C  0.54227413  0.68323046  0.00044089     0.92500
C3763       C  0.54092467  0.73941503  0.03851281     0.84600
C3764       C  0.54147432  0.74656608  0.96568228     0.90900
O3765       O  0.70353789  0.49612607  0.03218906    -0.72800
O3766       O  0.70423617  0.49366863  0.97687058    -0.73800
O3767       O  0.70510110  0.94990390  0.00517953    -0.62400
O3768       O  0.70218015  0.54018125  0.00432453    -0.70800
O3769       O  0.74922971  0.54066132  0.00502065    -0.70400
O3770       O  0.75230341  0.95002849  0.00457231    -0.61700
O3771       O  0.75143217  0.49576596  0.97716934    -0.74200
O3772       O  0.75075605  0.49467505  0.03211311    -0.72900
Cu3773     Cu  0.70219255  0.49494126  0.00458029     1.04600
Cu3774     Cu  0.75249573  0.49533380  0.00469036     1.04300
C3775       C  0.72724633  0.49562958  0.04098794     0.93400
C3776       C  0.72801323  0.49428075  0.96819309     0.92500
C3777       C  0.72900700  0.93555725  0.00496435     0.84600
C3778       C  0.72524405  0.55496315  0.00495651     0.90900
O3779       O  0.75142090  0.78962410  0.00583104    -0.72800
O3780       O  0.74780344  0.69952766  0.00837933    -0.73800
O3781       O  0.75089737  0.74190399  0.97965016    -0.62400
O3782       O  0.74817469  0.74778940  0.03467157    -0.70800
O3783       O  0.70097709  0.74797777  0.03350497    -0.70400
O3784       O  0.70390145  0.74661095  0.97835978    -0.61700
O3785       O  0.70083104  0.70187918  0.00639300    -0.74200
O3786       O  0.70421531  0.79208530  0.00569775    -0.72900
Cu3787     Cu  0.75114536  0.74452618  0.00718040     1.04600
Cu3788     Cu  0.70091754  0.74715078  0.00595437     1.04300
C3789       C  0.72828921  0.80522269  0.00563424     0.93400
C3790       C  0.72386113  0.68619869  0.00749097     0.92500
C3791       C  0.72794120  0.74389164  0.97013825     0.84600
C3792       C  0.72403544  0.74941630  0.04287689     0.90900
N3793       N  0.52994999  0.96768501  0.85446494    -0.36500
N3794       N  0.50382267  0.52126748  0.86162106    -0.57100
N3795       N  0.49618838  0.53064439  0.82165372    -0.36500
N3796       N  0.52391506  0.97651805  0.81417625    -0.57100
C3797       C  0.53714560  0.97029104  0.87238328     0.27100
C3798       C  0.54613961  0.94611754  0.84736583     0.27100
C3799       C  0.49310732  0.55762324  0.82846357     0.27100
C3800       C  0.00138253  0.53314937  0.80349666     0.27100
C3801       C  0.50564199  0.51229786  0.87913094     0.35700
C3802       C  0.48802995  0.54578461  0.86167731     0.35700
C3803       C  0.52942502  0.94786749  0.81489492     0.35700
C3804       C  0.01320576  0.98204496  0.79731466     0.35700
C3805       C  0.55823153  0.94999432  0.87668786    -0.21800
C3806       C  0.56365995  0.93448819  0.86093766    -0.21800
C3807       C  0.99603452  0.57744317  0.81440487    -0.21800
C3808       C  0.00110154  0.56199366  0.79864754    -0.21800
C3809       C  0.49047249  0.53106973  0.89042833    -0.22800
C3810       C  0.47941467  0.55244426  0.87935300    -0.22800
C3811       C  0.02282371  0.93518905  0.79827066    -0.22800
C3812       C  0.01263376  0.95692975  0.78707526    -0.22800
C3813       C  0.52382547  0.98945746  0.88503464    -0.18200
C3814       C  0.54127712  0.93323494  0.83015938    -0.18200
C3815       C  0.00517142  0.00986722  0.79102569    -0.18200
C3816       C  0.48644582  0.56493517  0.84682190    -0.18200
H3817       H  0.56790895  0.94608126  0.88992073     0.14700
H3818       H  0.57798678  0.91596101  0.85975453     0.14700
H3819       H  0.99446695  0.60070498  0.81533656     0.14700
H3820       H  0.00425247  0.57095081  0.78517162     0.14700
H3821       H  0.48875325  0.53023747  0.90515700     0.13000
H3822       H  0.46768483  0.57151626  0.88388842     0.13000
H3823       H  0.02522751  0.91264896  0.79457063     0.13000
H3824       H  0.00549104  0.95454266  0.77308976     0.13000
H3825       H  0.51208274  0.97657093  0.84793410     0.26300
H3826       H  0.49215204  0.51169321  0.82871180     0.26300
N3827       N  0.53667406  0.77435824  0.85646577    -0.36500
N3828       N  0.52826879  0.76827783  0.81657443    -0.57100
N3829       N  0.49175056  0.71991987  0.82329358    -0.36500
N3830       N  0.50158129  0.72682002  0.86330532    -0.57100
C3831       C  0.55275322  0.79590234  0.85006882     0.27100
C3832       C  0.54277828  0.77092347  0.87449027     0.27100
C3833       C  0.99694541  0.71664915  0.80511980     0.27100
C3834       C  0.48475949  0.69372157  0.82980511     0.27100
C3835       C  0.53691109  0.79588800  0.81734352     0.35700
C3836       C  0.01775938  0.76434584  0.79946822     0.35700
C3837       C  0.50656173  0.73368276  0.88092271     0.35700
C3838       C  0.48259936  0.70541878  0.86323360     0.35700
C3839       C  0.56946575  0.80652854  0.86413949    -0.21800
C3840       C  0.56363503  0.79034621  0.87947794    -0.21800
C3841       C  0.99185567  0.68853838  0.79988069    -0.21800
C3842       C  0.98442460  0.67400329  0.81540969    -0.21800
C3843       C  0.03267918  0.80915278  0.80047025    -0.22800
C3844       C  0.02106644  0.78892840  0.78907399    -0.22800
C3845       C  0.48996479  0.71691322  0.89225553    -0.22800
C3846       C  0.47483224  0.69890598  0.88102476    -0.22800
C3847       C  0.54823200  0.80959385  0.83302824    -0.18200
C3848       C  0.52792772  0.75282963  0.88680597    -0.18200
C3849       C  0.47920793  0.68665684  0.84830894    -0.18200
C3850       C  0.00582940  0.73848819  0.79310676    -0.18200
H3851       H  0.58330500  0.82496303  0.86359091     0.14700
H3852       H  0.57239245  0.79374004  0.89299317     0.14700
H3853       H  0.99395214  0.67926747  0.78636001     0.14700
H3854       H  0.97953873  0.65132452  0.81601032     0.14700
H3855       H  0.03746421  0.83111142  0.79672675     0.13000
H3856       H  0.01496365  0.79219472  0.77494622     0.13000
H3857       H  0.48988890  0.71659659  0.90703562     0.13000
H3858       H  0.46135832  0.68149948  0.88544732     0.13000
H3859       H  0.51948871  0.76632676  0.84935785     0.26300
H3860       H  0.49138281  0.73913118  0.83060685     0.26300
N3861       N  0.74892450  0.51217556  0.86113627    -0.36500
N3862       N  0.74798524  0.51166693  0.82070658    -0.57100
N3863       N  0.71417327  0.96196712  0.82136833    -0.36500
N3864       N  0.71241901  0.96250992  0.86157860    -0.57100
C3865       C  0.75793495  0.53903183  0.85730692     0.27100
C3866       C  0.74063139  0.51221987  0.87888149     0.27100
C3867       C  0.71132238  0.96865978  0.80346803     0.27100
C3868       C  0.69555961  0.94098577  0.82507468     0.27100
C3869       C  0.76630586  0.53322468  0.82371878     0.35700
C3870       C  0.74871668  0.50585724  0.80262523     0.35700
C3871       C  0.71912246  0.96376728  0.87954110     0.35700
C3872       C  0.70457530  0.93509495  0.85829741     0.35700
C3873       C  0.75631397  0.55594037  0.87298376    -0.21800
C3874       C  0.74572322  0.53893260  0.88660844    -0.21800
C3875       C  0.68989781  0.95208135  0.79582847    -0.21800
C3876       C  0.68043957  0.93407074  0.80942462    -0.21800
C3877       C  0.77893029  0.54132545  0.80743987    -0.22800
C3878       C  0.76819160  0.52359190  0.79409599    -0.22800
C3879       C  0.71406624  0.93757580  0.88788108    -0.22800
C3880       C  0.70548362  0.91917097  0.87432708    -0.22800
C3881       C  0.76742594  0.54909255  0.84011065    -0.18200
C3882       C  0.72947106  0.48849981  0.88846736    -0.18200
C3883       C  0.69667939  0.92417945  0.84102157    -0.18200
C3884       C  0.72949900  0.48721744  0.79363306    -0.18200
H3885       H  0.76215057  0.57831174  0.87450572     0.14700
H3886       H  0.74184079  0.54568769  0.90055251     0.14700
H3887       H  0.68303054  0.95172384  0.78170491     0.14700
H3888       H  0.66514768  0.91697763  0.80784379     0.14700
H3889       H  0.79354599  0.55886595  0.80533831     0.13000
H3890       H  0.77305631  0.52468340  0.77967139     0.13000
H3891       H  0.71717417  0.93201240  0.90210405     0.13000
H3892       H  0.70040489  0.89667308  0.87612917     0.13000
H3893       H  0.75020489  0.49440910  0.85247456     0.26300
H3894       H  0.73115228  0.96712341  0.82988079     0.26300
N3895       N  0.72211184  0.76286532  0.86259409    -0.36500
N3896       N  0.75670184  0.71080974  0.86422313    -0.57100
N3897       N  0.75735902  0.71016300  0.82384473    -0.36500
N3898       N  0.72457927  0.76165339  0.82232368    -0.57100
C3899       C  0.72925765  0.76215339  0.88052213     0.27100
C3900       C  0.71635522  0.79073671  0.85830669     0.27100
C3901       C  0.77547024  0.68809838  0.82777824     0.27100
C3902       C  0.75954036  0.71555805  0.80572899     0.27100
C3903       C  0.74798888  0.71202578  0.88185533     0.35700
C3904       C  0.76564243  0.68332556  0.86118148     0.35700
C3905       C  0.70687681  0.78440293  0.82504398     0.35700
C3906       C  0.72362071  0.75549178  0.80434499     0.35700
C3907       C  0.72714878  0.78966868  0.88786031    -0.21800
C3908       C  0.71946837  0.80780816  0.87377400    -0.21800
C3909       C  0.78949170  0.67919575  0.81198617    -0.21800
C3910       C  0.77966187  0.69677095  0.79807781    -0.21800
C3911       C  0.75268777  0.68565852  0.89029217    -0.22800
C3912       C  0.76360316  0.66734156  0.87712868    -0.22800
C3913       C  0.69425172  0.79280577  0.80867632    -0.22800
C3914       C  0.70479782  0.77429343  0.79550807    -0.22800
C3915       C  0.73681273  0.73708857  0.89048399    -0.18200
C3916       C  0.70710040  0.80109338  0.84105384    -0.18200
C3917       C  0.74191027  0.73512735  0.79575397    -0.18200
C3918       C  0.77459939  0.67203318  0.84408068    -0.18200
H3919       H  0.73115615  0.79610170  0.90183439     0.14700
H3920       H  0.71612915  0.83092216  0.87489721     0.14700
H3921       H  0.80418043  0.66097966  0.81050459     0.14700
H3922       H  0.78557406  0.69493965  0.78382855     0.14700
H3923       H  0.74819486  0.68009660  0.90433557     0.13000
H3924       H  0.76919262  0.64476105  0.87902498     0.13000
H3925       H  0.68010849  0.81124269  0.80636812     0.13000
H3926       H  0.70017167  0.77537330  0.78103183     0.13000
H3927       H  0.71886113  0.74506396  0.85422129     0.26300
H3928       H  0.74110810  0.71721638  0.83249352     0.26300
N3929       N  0.50632078  0.06577528  0.64559283    -0.36500
N3930       N  0.50882741  0.05621088  0.68622669    -0.57100
N3931       N  0.96009392  0.02227257  0.68520123    -0.36500
N3932       N  0.95748344  0.02863362  0.64485730    -0.57100
C3933       C  0.53413230  0.07097964  0.64935256     0.27100
C3934       C  0.50463801  0.06001677  0.62743075     0.27100
C3935       C  0.96909488  0.01608858  0.70242745     0.27100
C3936       C  0.94023162  0.00287056  0.68059392     0.27100
C3937       C  0.53076085  0.07397049  0.68331982     0.35700
C3938       C  0.50523007  0.05422139  0.70447137     0.35700
C3939       C  0.95673119  0.03812273  0.62736210     0.35700
C3940       C  0.93153753  0.01731951  0.64813897     0.35700
C3941       C  0.54982387  0.07040150  0.63324934    -0.21800
C3942       C  0.53112104  0.06388249  0.61938838    -0.21800
C3943       C  0.95469791  0.99217860  0.70875065    -0.21800
C3944       C  0.93603363  0.98420734  0.69508342    -0.21800
C3945       C  0.54109493  0.08380422  0.69993351    -0.22800
C3946       C  0.52433725  0.07199468  0.71333595    -0.22800
C3947       C  0.93063335  0.03208125  0.61937108    -0.22800
C3948       C  0.91450393  0.01922341  0.63259877    -0.22800
C3949       C  0.54650792  0.07355975  0.66697642    -0.18200
C3950       C  0.98023076  0.04990203  0.61806652    -0.18200
C3951       C  0.92302727  0.00452054  0.66475868    -0.18200
C3952       C  0.98849105  0.03277789  0.71286251    -0.18200
H3953       H  0.57264050  0.07348181  0.63174306     0.14700
H3954       H  0.53675286  0.06076390  0.60517925     0.14700
H3955       H  0.95665258  0.98216205  0.72204705     0.14700
H3956       H  0.92074521  0.96698318  0.69582815     0.14700
H3957       H  0.55993318  0.09654595  0.70223954     0.13000
H3958       H  0.52758947  0.07418956  0.72790675     0.13000
H3959       H  0.92395531  0.03650927  0.60547353     0.13000
H3960       H  0.89285604  0.01166436  0.63086971     0.13000
H3961       H  0.48952928  0.06603754  0.65495226     0.26300
H3962       H  0.96361853  0.04106071  0.67784357     0.26300
N3963       N  0.52149317  0.74118488  0.64549967    -0.36500
N3964       N  0.97155138  0.70667209  0.64638227    -0.57100
N3965       N  0.97448550  0.70860308  0.68696366    -0.36500
N3966       N  0.52315147  0.74158568  0.68615499    -0.57100
C3967       C  0.51997670  0.73233770  0.62788732     0.27100
C3968       C  0.54925035  0.74670501  0.64904891     0.27100
C3969       C  0.95407087  0.68921023  0.68378986     0.27100
C3970       C  0.98174283  0.70680234  0.70485877     0.27100
C3971       C  0.97067479  0.71455406  0.62859016     0.35700
C3972       C  0.94465925  0.69931269  0.65086101     0.35700
C3973       C  0.54423761  0.75962534  0.68195330     0.35700
C3974       C  0.51816306  0.74438190  0.70421477     0.35700
C3975       C  0.54686100  0.73337032  0.61994530    -0.21800
C3976       C  0.56547289  0.74183385  0.63341621    -0.21800
C3977       C  0.94826667  0.67445849  0.69979858    -0.21800
C3978       C  0.96607480  0.68533908  0.71310129    -0.21800
C3979       C  0.94348695  0.71094043  0.62148139    -0.22800
C3980       C  0.92680771  0.70176244  0.63570337    -0.22800
C3981       C  0.55291723  0.77425069  0.69749986    -0.22800
C3982       C  0.53603285  0.76486867  0.71162334    -0.22800
C3983       C  0.99459981  0.72421835  0.61877993    -0.18200
C3984       C  0.56022661  0.75701670  0.66579884    -0.18200
C3985       C  0.99987812  0.72623429  0.71404095    -0.18200
C3986       C  0.93597938  0.69034977  0.66842718    -0.18200
H3987       H  0.55265915  0.72813705  0.60601616     0.14700
H3988       H  0.58830310  0.74460751  0.63175963     0.14700
H3989       H  0.93166509  0.65880641  0.70187883     0.14700
H3990       H  0.96623701  0.67936399  0.72738489     0.14700
H3991       H  0.93630658  0.71507386  0.60765055     0.13000
H3992       H  0.90415874  0.69727644  0.63492856     0.13000
H3993       H  0.57062623  0.78889381  0.69867352     0.13000
H3994       H  0.53782570  0.77117002  0.72581182     0.13000
H3995       H  0.50427006  0.74540417  0.65418759     0.26300
H3996       H  0.97844802  0.72564154  0.67817786     0.26300
N3997       N  0.70353373  0.51961781  0.64757347    -0.36500
N3998       N  0.70111346  0.51037947  0.68737592    -0.57100
N3999       N  0.75869664  0.48706818  0.68707588    -0.36500
N4000       N  0.76141165  0.49890578  0.64729493    -0.57100
C4001       C  0.67910953  0.53431908  0.65162459     0.27100
C4002       C  0.71040585  0.52603907  0.63009275     0.27100
C4003       C  0.75438864  0.48980329  0.70531194     0.27100
C4004       C  0.78734797  0.48652385  0.68440358     0.27100
C4005       C  0.67363728  0.51854487  0.68420520     0.35700
C4006       C  0.70207135  0.50003816  0.70464249     0.35700
C4007       C  0.75781568  0.50088352  0.62898964     0.35700
C4008       C  0.78795978  0.48778363  0.65011285     0.35700
C4009       C  0.67009213  0.54996879  0.63642797    -0.21800
C4010       C  0.68982444  0.54469721  0.62284611    -0.21800
C4011       C  0.78051114  0.48957364  0.71433444    -0.21800
C4012       C  0.80128362  0.48738690  0.70118183    -0.21800
C4013       C  0.65712081  0.51354142  0.69959820    -0.22800
C4014       C  0.67509147  0.50158020  0.71247059    -0.22800
C4015       C  0.78211340  0.49063989  0.62009546    -0.22800
C4016       C  0.80138977  0.48278681  0.63347095    -0.22800
C4017       C  0.66343135  0.53208413  0.66807753    -0.18200
C4018       C  0.73416235  0.51462483  0.62029798    -0.18200
C4019       C  0.80161329  0.48600024  0.66733880    -0.18200
C4020       C  0.72754807  0.49260786  0.71412740    -0.18200
H4021       H  0.65097519  0.56340789  0.63510225     0.14700
H4022       H  0.68899199  0.55348718  0.60916588     0.14700
H4023       H  0.78429283  0.49142779  0.72887429     0.14700
H4024       H  0.82414866  0.48706757  0.70372348     0.14700
H4025       H  0.63453866  0.51839377  0.70150389     0.13000
H4026       H  0.66918018  0.49564034  0.72622923     0.13000
H4027       H  0.78606758  0.49018685  0.60553530     0.13000
H4028       H  0.82308518  0.47500025  0.63115390     0.13000
H4029       H  0.71282935  0.50352493  0.65554893     0.26300
H4030       H  0.74313687  0.48418444  0.67712826     0.26300
N4031       N  0.72292286  0.74208063  0.64823363    -0.36500
N4032       N  0.72236252  0.74495755  0.68868431    -0.57100
N4033       N  0.77614697  0.71796476  0.68985578    -0.36500
N4034       N  0.77706355  0.71317158  0.64931874    -0.57100
C4035       C  0.69464571  0.74507521  0.65172668     0.27100
C4036       C  0.72554630  0.73374576  0.63056395     0.27100
C4037       C  0.76917159  0.71632730  0.70777092     0.27100
C4038       C  0.79781813  0.69899245  0.68692343     0.27100
C4039       C  0.69765888  0.75881910  0.68470668     0.35700
C4040       C  0.72727294  0.74925915  0.70662971     0.35700
C4041       C  0.77663386  0.71986774  0.63132584     0.35700
C4042       C  0.80450841  0.70626872  0.65343126     0.35700
C4043       C  0.67915589  0.73903697  0.63597620    -0.21800
C4044       C  0.69874816  0.73235110  0.62252871    -0.21800
C4045       C  0.78671087  0.69601157  0.71632854    -0.21800
C4046       C  0.80500302  0.68517999  0.70314263    -0.21800
C4047       C  0.68676677  0.77241046  0.70018374    -0.22800
C4048       C  0.70581792  0.76662487  0.71409629    -0.22800
C4049       C  0.80362967  0.71619936  0.62381244    -0.22800
C4050       C  0.82140861  0.70777118  0.63786618    -0.22800
C4051       C  0.68242572  0.75463067  0.66839882    -0.18200
C4052       C  0.75170944  0.72794194  0.62155842    -0.18200
C4053       C  0.81448371  0.69805741  0.67094387    -0.18200
C4054       C  0.74837139  0.73391413  0.71660632    -0.18200
H4055       H  0.65610674  0.73982144  0.63424013     0.14700
H4056       H  0.69380755  0.72658172  0.60855971     0.14700
H4057       H  0.78681808  0.69018618  0.73063839     0.14700
H4058       H  0.82231715  0.66967360  0.70532429     0.14700
H4059       H  0.66654745  0.78408449  0.70147269     0.13000
H4060       H  0.70322863  0.77287686  0.72825668     0.13000
H4061       H  0.80985536  0.71943071  0.60974161     0.13000
H4062       H  0.84417759  0.70322985  0.63672261     0.13000
H4063       H  0.73949764  0.74794839  0.65690898     0.26300
H4064       H  0.76999310  0.73410776  0.68073568     0.26300
C4065       C  0.88892508  0.66570572  0.66714852    -0.01700
C4066       C  0.90507237  0.68980032  0.67203533     0.07900
C4067       C  0.89158199  0.71525149  0.67859722    -0.01900
C4068       C  0.86175166  0.71726381  0.67906912    -0.01900
C4069       C  0.84550054  0.69362927  0.67331432     0.08100
C4070       C  0.85893281  0.66751363  0.66800682    -0.02000
Br4071     Br  0.83612320  0.63504224  0.66112688    -0.00600
Br4072     Br  0.90800455  0.63131260  0.65814593    -0.00700
Br4073     Br  0.84323663  0.75337511  0.68606335    -0.00600
Br4074     Br  0.91372249  0.74845080  0.68543933    -0.00600
C4075       C  0.60598878  0.73359220  0.67499318    -0.01700
C4076       C  0.59150535  0.75802463  0.66780351     0.07900
C4077       C  0.60670644  0.78225565  0.66205871    -0.01900
C4078       C  0.63668556  0.78175127  0.66306369    -0.01900
C4079       C  0.65108985  0.75684095  0.66942603     0.08100
C4080       C  0.63585121  0.73303156  0.67586913    -0.02000
Br4081     Br  0.65586671  0.69939213  0.68548092    -0.00600
Br4082     Br  0.58498856  0.70032452  0.68289097    -0.00700
Br4083     Br  0.65829672  0.81485043  0.65585022    -0.00600
Br4084     Br  0.58649590  0.81549408  0.65241591    -0.00600
C4085       C  0.87352003  0.52102736  0.67170896    -0.01700
C4086       C  0.89236094  0.99814164  0.66685110     0.07900
C4087       C  0.88158927  0.97064709  0.66291952    -0.01900
C4088       C  0.85194494  0.96607677  0.66406815    -0.01900
C4089       C  0.83306276  0.48946990  0.66764738     0.08100
C4090       C  0.84393982  0.51699761  0.67151566    -0.02000
Br4091     Br  0.81833023  0.54940484  0.67646855    -0.00600
Br4092     Br  0.88848406  0.55836969  0.67802403    -0.00700
Br4093     Br  0.83693997  0.92789311  0.66107693    -0.00600
Br4094     Br  0.90721914  0.93992152  0.65523039    -0.00600
C4095       C  0.59912648  0.58331947  0.67040780    -0.01700
C4096       C  0.57676133  0.06374322  0.66858922     0.07900
C4097       C  0.58283112  0.03386609  0.66691671    -0.01900
C4098       C  0.61121764  0.02398678  0.66558241    -0.01900
C4099       C  0.63357701  0.54333944  0.66812508     0.08100
C4100       C  0.62763575  0.57295545  0.67095655    -0.02000
Br4101     Br  0.65859323  0.59912184  0.67522761    -0.00600
Br4102     Br  0.59084574  0.62408373  0.67153035    -0.00700
Br4103     Br  0.61943863  0.98411841  0.65947028    -0.00600
Br4104     Br  0.55226653  0.00622949  0.66649880    -0.00600
C4105       C  0.72469690  0.71776360  0.76522263    -0.01700
C4106       C  0.74346015  0.73494798  0.77543950     0.07900
C4107       C  0.76370994  0.75198187  0.76640061    -0.01900
C4108       C  0.76595149  0.75095195  0.74722848    -0.01900
C4109       C  0.74690313  0.73406948  0.73696022     0.08100
C4110       C  0.72605481  0.71770985  0.74601990    -0.02000
Br4111     Br  0.69937833  0.69513851  0.73210907    -0.00600
Br4112     Br  0.69711218  0.69438417  0.77765349    -0.00700
Br4113     Br  0.79510051  0.77263009  0.73500904    -0.00600
Br4114     Br  0.78785695  0.77718579  0.78037061    -0.00600
C4115       C  0.72243686  0.87909441  0.83226828    -0.01700
C4116       C  0.69695869  0.89257846  0.83862646     0.07900
C4117       C  0.67382092  0.87591531  0.84448928    -0.01900
C4118       C  0.67671119  0.84571570  0.84486221    -0.01900
C4119       C  0.70239591  0.83243057  0.83894176     0.08100
C4120       C  0.72494219  0.84902535  0.83212940    -0.02000
Br4121     Br  0.76007636  0.83065242  0.82362674    -0.00600
Br4122     Br  0.75512730  0.90164787  0.82529456    -0.00700
Br4123     Br  0.64646696  0.82238176  0.85435282    -0.00600
Br4124     Br  0.63917759  0.89456781  0.85306555    -0.00600
C4125       C  0.74656185  0.59783884  0.83568901    -0.01700
C4126       C  0.77128210  0.58049954  0.83849132     0.07900
C4127       C  0.79789499  0.59313738  0.84215041    -0.01900
C4128       C  0.79942400  0.62328962  0.84401776    -0.01900
C4129       C  0.77444102  0.64043809  0.84176847     0.08100
C4130       C  0.74816670  0.62775198  0.83722179    -0.02000
Br4131     Br  0.71386481  0.65133180  0.83384927    -0.00600
Br4132     Br  0.70992360  0.58042154  0.83092817    -0.00700
Br4133     Br  0.83509455  0.64109497  0.85024987    -0.00600
Br4134     Br  0.83172208  0.56904338  0.84489496    -0.00600
C4135       C  0.71866633  0.51345937  0.76421366    -0.01700
C4136       C  0.72772874  0.48791631  0.77319180     0.07900
C4137       C  0.73588541  0.96328841  0.76261622    -0.01900
C4138       C  0.73368994  0.96424615  0.74341222    -0.01900
C4139       C  0.72678727  0.49065676  0.73454097     0.08100
C4140       C  0.72060491  0.51550329  0.74510649    -0.02000
Br4141     Br  0.71724264  0.55291469  0.73364715    -0.00600
Br4142     Br  0.70257319  0.54544104  0.77795849    -0.00700
Br4143     Br  0.73993580  0.92953788  0.72923347    -0.00600
Br4144     Br  0.75098952  0.92885363  0.77423949    -0.00600
C4145       C  0.97823677  0.74148268  0.76351143    -0.01700
C4146       C  0.00353805  0.73359888  0.77294810     0.07900
C4147       C  0.52678580  0.72093614  0.76327262     0.00500
C4148       C  0.52469170  0.71656867  0.74425227    -0.01900
C4149       C  0.00037457  0.72715187  0.73450701     0.08100
C4150       C  0.97712317  0.73949576  0.74430184    -0.02000
Br4151     Br  0.94422668  0.75495243  0.73144323    -0.00600
Br4152     Br  0.94503288  0.75468089  0.77700978    -0.00700
Br4153     Br  0.55458513  0.69543989  0.73154599    -0.00600
Br4154     Br  0.56138550  0.70977708  0.77609176    -0.00600
C4155       C  0.56777937  0.88701944  0.82269782    -0.01700
C4156       C  0.54338801  0.90148913  0.82970584     0.07900
C4157       C  0.02127404  0.88604330  0.83783034    -0.01900
C4158       C  0.02401070  0.85619652  0.83987460    -0.01900
C4159       C  0.54830340  0.84145114  0.83292368     0.08100
C4160       C  0.57019802  0.85681411  0.82422267    -0.02000
Br4161     Br  0.60291083  0.83643802  0.81416652    -0.00600
Br4162     Br  0.59719505  0.90864214  0.81075243    -0.00700
Br4163     Br  0.99389231  0.83557428  0.85207137    -0.00600
Br4164     Br  0.98648481  0.90580340  0.84566345    -0.00600
C4165       C  0.50499677  0.64156830  0.85656306    -0.01700
C4166       C  0.47865200  0.65566332  0.85259746     0.07900
C4167       C  0.95365648  0.63973527  0.84957283    -0.01900
C4168       C  0.95570364  0.60953900  0.84863974    -0.01900
C4169       C  0.48255009  0.59572838  0.85117997     0.08100
C4170       C  0.50678813  0.61151913  0.85617340    -0.02000
Br4171     Br  0.54305500  0.59210798  0.86102754    -0.00600
Br4172     Br  0.53953006  0.66328251  0.86038813    -0.00700
Br4173     Br  0.92253020  0.58709756  0.84290210    -0.00600
Br4174     Br  0.91755012  0.65950253  0.84545161    -0.00600
C4175       C  0.96981354  0.53105791  0.74550515    -0.01700
C4176       C  0.99271976  0.02641957  0.73291386     0.07900
C4177       C  0.51952375  0.01616534  0.73962207    -0.01900
C4178       C  0.52395086  0.01236618  0.75857312    -0.01900
C4179       C  0.00084947  0.01518257  0.77088734     0.08100
C4180       C  0.97339781  0.52387516  0.76413425    -0.02000
Br4181     Br  0.94067660  0.52516787  0.78022248    -0.00600
Br4182     Br  0.93403194  0.54829789  0.73734770    -0.00700
Br4183     Br  0.56227152  0.00533220  0.76773022    -0.00600
Br4184     Br  0.55022313  0.00634139  0.72290596    -0.00600
C4185       C  0.70598553  0.73351280  0.93875632    -0.01700
C4186       C  0.72949502  0.74289750  0.94957260     0.07900
C4187       C  0.75496005  0.75114655  0.94042885    -0.01900
C4188       C  0.75768897  0.74764507  0.92136512    -0.01900
C4189       C  0.73449481  0.73807658  0.91086115     0.08100
C4190       C  0.70845580  0.73173653  0.91952619    -0.02000
Br4191     Br  0.67596365  0.72099972  0.90475302    -0.00600
Br4192     Br  0.66998182  0.72270389  0.94959165    -0.00700
Br4193     Br  0.79306592  0.75703113  0.90925825    -0.00600
Br4194     Br  0.78549152  0.77040546  0.95319153    -0.00600
C4195       C  0.71046210  0.85515102  0.99386156    -0.01700
C4196       C  0.72920325  0.83862378  0.00527597     0.07900
C4197       C  0.74845118  0.85451452  0.01639399    -0.01900
C4198       C  0.74871580  0.88554408  0.01617159    -0.01900
C4199       C  0.72947370  0.90207340  0.00500929     0.08100
C4200       C  0.71033573  0.88610117  0.99389560    -0.02000
Br4201     Br  0.68436738  0.90654400  0.97771126    -0.00600
Br4202     Br  0.68595891  0.83533947  0.97688672    -0.00700
Br4203     Br  0.77467317  0.90536219  0.03221900    -0.00600
Br4204     Br  0.77372481  0.83387709  0.03294433    -0.00600
C4205       C  0.70161663  0.60564297  0.99783402    -0.01700
C4206       C  0.72422375  0.58867928  0.00589164     0.07900
C4207       C  0.74557392  0.60457303  0.01536144    -0.01900
C4208       C  0.74455073  0.63552897  0.01657094    -0.01900
C4209       C  0.72307926  0.65253594  0.00752491     0.08100
C4210       C  0.70125341  0.63672910  0.99842370    -0.02000
Br4211     Br  0.67043681  0.65734058  0.98612173    -0.00600
Br4212     Br  0.67082996  0.58673327  0.98518985    -0.00700
Br4213     Br  0.77149215  0.65429231  0.03252275    -0.00600
Br4214     Br  0.77629453  0.58424556  0.02782513    -0.00600
C4215       C  0.70663057  0.00438060  0.91795458    -0.01700
C4216       C  0.72888475  0.48964376  0.90886962     0.07900
C4217       C  0.75129927  0.47680134  0.91905244    -0.01900
C4218       C  0.75121840  0.47833525  0.93831259    -0.01900
C4219       C  0.72851681  0.49298212  0.94768763     0.08100
C4220       C  0.70642286  0.00627020  0.93719925    -0.02000
Br4221     Br  0.67635676  0.02900034  0.94867729    -0.00600
Br4222     Br  0.67650066  0.02284838  0.90376878    -0.00700
Br4223     Br  0.78223087  0.45923095  0.95135365    -0.00600
Br4224     Br  0.78217997  0.45694629  0.90633138    -0.00600
C4225       C  0.02199427  0.77095561  0.93745000    -0.01700
C4226       C  0.54089247  0.75027376  0.94542187     0.07900
C4227       C  0.55790031  0.73250119  0.93383210    -0.01900
C4228       C  0.55457091  0.73421718  0.91464935    -0.01900
C4229       C  0.53452338  0.75385932  0.90686225     0.08100
C4230       C  0.01849377  0.77234776  0.91832913    -0.02000
Br4231     Br  0.99038250  0.79853936  0.90783701    -0.00600
Br4232     Br  0.00150427  0.79842960  0.95269862    -0.00700
Br4233     Br  0.57625661  0.70846368  0.89896722    -0.00600
Br4234     Br  0.58457287  0.70451579  0.94406748    -0.00600
C4235       C  0.55627328  0.88280932  0.99007457    -0.01700
C4236       C  0.53754289  0.89972177  0.00131906     0.07900
C4237       C  0.01905185  0.88401342  0.01292436    -0.01900
C4238       C  0.01910244  0.85297092  0.01320859    -0.01900
C4239       C  0.53861776  0.83609504  0.00250157     0.08100
C4240       C  0.55704666  0.85181069  0.99081393    -0.02000
Br4241     Br  0.58240064  0.83080759  0.97452896    -0.00600
Br4242     Br  0.57989540  0.90200434  0.97241997    -0.00700
Br4243     Br  0.99249313  0.83371014  0.02898571    -0.00600
Br4244     Br  0.99462371  0.90494096  0.02969576    -0.00600
C4245       C  0.02358307  0.63404279  0.98862129    -0.01700
C4246       C  0.54244313  0.64970716  0.00010306     0.07900
C4247       C  0.56072841  0.63283695  0.01165885    -0.01900
C4248       C  0.55995584  0.60184131  0.01187725    -0.01900
C4249       C  0.54080639  0.58617790  0.00055317     0.08100
C4250       C  0.02259030  0.60307136  0.98896430    -0.02000
Br4251     Br  0.99663320  0.58377818  0.97266543    -0.00600
Br4252     Br  0.99994687  0.65493264  0.97126878    -0.00700
Br4253     Br  0.58416792  0.58101162  0.02892936    -0.00600
Br4254     Br  0.58611399  0.65217016  0.02825161    -0.00600
C4255       C  0.01734925  0.96695161  0.91622654    -0.01700
C4256       C  0.53063191  0.98751570  0.90510851     0.07900
C4257       C  0.54813206  0.50855180  0.91343796    -0.01900
C4258       C  0.55063735  0.51014754  0.93267191    -0.01900
C4259       C  0.53662312  0.98995149  0.94382888     0.08100
C4260       C  0.02037028  0.96810266  0.93544164    -0.02000
Br4261     Br  0.00222879  0.93931567  0.95029781    -0.00600
Br4262     Br  0.99441891  0.93746358  0.90512460    -0.00700
Br4263     Br  0.57099266  0.54166103  0.94357426    -0.00600
Br4264     Br  0.56844811  0.53524275  0.89821454    -0.00600
C4265       C  0.76016091  0.75737442  0.57325528    -0.01700
C4266       C  0.75210806  0.73339627  0.56226776     0.07900
C4267       C  0.74533243  0.70712684  0.57130885    -0.01900
C4268       C  0.74709438  0.70504017  0.59051751    -0.01900
C4269       C  0.75264891  0.72954707  0.60116450     0.08100
C4270       C  0.75900489  0.75570811  0.59251107    -0.02000
Br4271     Br  0.76662597  0.78924698  0.60734941    -0.00600
Br4272     Br  0.77523881  0.79216780  0.56269770    -0.00700
Br4273     Br  0.74232535  0.66833402  0.60250648    -0.00600
Br4274     Br  0.73207317  0.67359409  0.55822099    -0.00600
C4275       C  0.74579631  0.54587593  0.57258947    -0.01700
C4276       C  0.73414888  0.52409779  0.56116060     0.07900
C4277       C  0.72358542  0.99875893  0.56962760    -0.01900
C4278       C  0.72308483  0.99623533  0.58884094    -0.01900
C4279       C  0.73451417  0.51794769  0.59994546     0.08100
C4280       C  0.74626394  0.54250784  0.59179463    -0.02000
Br4281     Br  0.76316241  0.57146986  0.60723492    -0.00600
Br4282     Br  0.76288063  0.57994982  0.56243957    -0.00700
Br4283     Br  0.70628308  0.96301055  0.60027013    -0.00600
Br4284     Br  0.70932954  0.96676675  0.55553769    -0.00600
C4285       C  0.88997394  0.75707688  0.49236973    -0.01700
C4286       C  0.90689337  0.74004309  0.50460300     0.07900
C4287       C  0.89152046  0.72277319  0.51719902    -0.01900
C4288       C  0.86069850  0.72245421  0.51744352    -0.01900
C4289       C  0.84383243  0.73950980  0.50520129     0.08100
C4290       C  0.85916632  0.75668330  0.49257626    -0.02000
Br4291     Br  0.83789840  0.77816475  0.47434912    -0.00600
Br4292     Br  0.90919970  0.78005990  0.47440965    -0.00700
Br4293     Br  0.84134838  0.69913274  0.53522100    -0.00600
Br4294     Br  0.91269883  0.70046398  0.53505784    -0.00600
C4295       C  0.64073500  0.76346507  0.50070978    -0.01700
C4296       C  0.65752789  0.73798785  0.50473818     0.07900
C4297       C  0.64105911  0.71302069  0.50890079    -0.01900
C4298       C  0.61002903  0.71353802  0.50892810    -0.01900
C4299       C  0.59336046  0.73864061  0.50401102     0.08100
C4300       C  0.60978943  0.76359109  0.49996940    -0.02000
Br4301     Br  0.59031019  0.79893837  0.49269185    -0.00600
Br4302     Br  0.65950220  0.79954620  0.49601521    -0.00700
Br4303     Br  0.59066338  0.67952790  0.51730062    -0.00600
Br4304     Br  0.66052527  0.67738247  0.51562262    -0.00600
C4305       C  0.00930344  0.70658549  0.56878144    -0.01700
C4306       C  0.99758884  0.73127804  0.55978674     0.07900
C4307       C  0.48368877  0.75306556  0.57054252    -0.01900
C4308       C  0.48182392  0.75011267  0.58968395    -0.01900
C4309       C  0.99363594  0.72560297  0.59838658     0.08100
C4310       C  0.00659150  0.70352368  0.58786308    -0.02000
Br4311     Br  0.02110019  0.66910731  0.59986437    -0.00600
Br4312     Br  0.03164477  0.67777151  0.55567636    -0.00700
Br4313     Br  0.46272649  0.77967177  0.60411458    -0.00600
Br4314     Br  0.46654144  0.78729334  0.55959203    -0.00600
C4315       C  0.87344831  0.51326457  0.51192745    -0.01700
C4316       C  0.88919248  0.03501906  0.50250441     0.07900
C4317       C  0.87204677  0.05754661  0.49440897    -0.01900
C4318       C  0.84118143  0.05819531  0.49555900    -0.01900
C4319       C  0.82559853  0.03586449  0.50423508     0.08100
C4320       C  0.84260315  0.51381839  0.51280513    -0.02000
Br4321     Br  0.82379664  0.48539600  0.52758406    -0.00600
Br4322     Br  0.89386989  0.48282632  0.52478835    -0.00700
Br4323     Br  0.82039422  0.09042576  0.48499496    -0.00600
Br4324     Br  0.89026293  0.08755327  0.48065185    -0.00600
C4325       C  0.59202447  0.54910765  0.49101131    -0.01700
C4326       C  0.57583082  0.03013514  0.50208565     0.07900
C4327       C  0.59241359  0.01054722  0.51309952    -0.01900
C4328       C  0.62333855  0.01043528  0.51324191    -0.01900
C4329       C  0.63943538  0.03037826  0.50283708     0.08100
C4330       C  0.62292701  0.54934014  0.49145787    -0.02000
Br4331     Br  0.64287398  0.57459889  0.47509141    -0.00600
Br4332     Br  0.57214286  0.57424011  0.47400013    -0.00700
Br4333     Br  0.64373510  0.98289281  0.52835141    -0.00600
Br4334     Br  0.57306796  0.98432901  0.52911808    -0.00600
C4335       C  0.49076889  0.01914555  0.57006216    -0.01700
C4336       C  0.98196235  0.04264080  0.55862934     0.07900
C4337       C  0.97269707  0.56867312  0.56730282    -0.01900
C4338       C  0.97196043  0.57091789  0.58660996    -0.01900
C4339       C  0.98090320  0.04772131  0.59760309     0.08100
C4340       C  0.49030964  0.02190064  0.58928219    -0.02000
Br4341     Br  0.50310054  0.99015369  0.60458940    -0.00600
Br4342     Br  0.50486948  0.98279807  0.56018582    -0.00700
Br4343     Br  0.95810098  0.60587061  0.59832055    -0.00600
Br4344     Br  0.96008564  0.60197877  0.55336333    -0.00600
C4345       C  0.78255999  0.72949312  0.42056567    -0.01700
C4346       C  0.76393008  0.74769381  0.41045718     0.07900
C4347       C  0.74261855  0.76404896  0.41961861    -0.01900
C4348       C  0.73913013  0.76150998  0.43864492    -0.01900
C4349       C  0.75708082  0.74260237  0.44881758     0.08100
C4350       C  0.77886955  0.72649709  0.43963172    -0.02000
Br4351     Br  0.80395746  0.70035305  0.45294442    -0.00600
Br4352     Br  0.81317465  0.70888699  0.40816719    -0.00700
Br4353     Br  0.70802104  0.78233231  0.45041684    -0.00600
Br4354     Br  0.71784605  0.78982022  0.40584803    -0.00600
C4355       C  0.71346139  0.02047040  0.43773454    -0.01700
C4356       C  0.73010228  0.04032082  0.44772817     0.07900
C4357       C  0.74624115  0.06080883  0.43799520    -0.01900
C4358       C  0.74809970  0.05936358  0.41876405    -0.01900
C4359       C  0.73233611  0.03886222  0.40894518     0.08100
C4360       C  0.71476535  0.01965863  0.41849153    -0.02000
Br4361     Br  0.69309792  0.99154570  0.40515282    -0.00600
Br4362     Br  0.68679489  0.99586803  0.45017851    -0.00700
Br4363     Br  0.77320957  0.08473907  0.40574488    -0.00600
Br4364     Br  0.76553962  0.59134880  0.45051409    -0.00600
C4365       C  0.51478456  0.76894289  0.43765837    -0.01700
C4366       C  0.99675783  0.74951552  0.44680235     0.07900
C4367       C  0.97715173  0.73322709  0.43639265    -0.01900
C4368       C  0.97623613  0.73581596  0.41718329    -0.01900
C4369       C  0.99573830  0.75359471  0.40809165     0.08100
C4370       C  0.51475581  0.77033983  0.41839752    -0.02000
Br4371     Br  0.54113839  0.79504737  0.40583833    -0.00600
Br4372     Br  0.54052695  0.79319966  0.45112337    -0.00700
Br4373     Br  0.94834638  0.71489245  0.40316395    -0.00600
Br4374     Br  0.95072489  0.70782955  0.44828772    -0.00600
C4375       C  0.89369492  0.80642136  0.33363224    -0.01700
C4376       C  0.90814203  0.77968493  0.33567433     0.07900
C4377       C  0.89288078  0.75424279  0.33870948    -0.01900
C4378       C  0.86307516  0.75558976  0.33998154    -0.01900
C4379       C  0.84855323  0.78236240  0.33812102     0.08100
C4380       C  0.86368938  0.80776072  0.33483081    -0.02000
Br4381     Br  0.84322012  0.84400646  0.33214786    -0.00600
Br4382     Br  0.91517705  0.84092053  0.32961194    -0.00700
Br4383     Br  0.84207011  0.72065013  0.34428802    -0.00600
Br4384     Br  0.91289479  0.71750652  0.34128747    -0.00600
C4385       C  0.61620080  0.69194415  0.34713283    -0.01700
C4386       C  0.60241285  0.71875372  0.35000964     0.07900
C4387       C  0.61793277  0.74308324  0.35528166    -0.01900
C4388       C  0.64774797  0.74119374  0.35608603    -0.01900
C4389       C  0.66181066  0.71489587  0.35173696     0.08100
C4390       C  0.64616919  0.68987466  0.34829037    -0.02000
Br4391     Br  0.66613778  0.65374090  0.34419260    -0.00600
Br4392     Br  0.59381887  0.65917301  0.34039463    -0.00700
Br4393     Br  0.66943975  0.77545040  0.36115442    -0.00600
Br4394     Br  0.59845740  0.77967599  0.35958351    -0.00600
C4395       C  0.50246861  0.99926809  0.43753600    -0.01700
C4396       C  0.98292453  0.01968622  0.44518288     0.07900
C4397       C  0.96309338  0.53397754  0.43349492    -0.01900
C4398       C  0.96295255  0.52805727  0.41452665    -0.01900
C4399       C  0.98171632  0.50687895  0.40713105     0.08100
C4400       C  0.50148062  0.99260335  0.41871443    -0.02000
Br4401     Br  0.52717183  0.96354241  0.40869293    -0.00600
Br4402     Br  0.53216226  0.98174873  0.45249581    -0.00700
Br4403     Br  0.93779975  0.54972217  0.39843256    -0.00600
Br4404     Br  0.93528858  0.56103234  0.44327833    -0.00600
C4405       C  0.85196194  0.51445462  0.34811406    -0.01700
C4406       C  0.83190631  0.99299294  0.34474438     0.07900
C4407       C  0.84071607  0.96518864  0.33905196    -0.01900
C4408       C  0.86999419  0.95878397  0.33702164    -0.01900
C4409       C  0.88985178  0.48044961  0.33985528     0.08100
C4410       C  0.88089537  0.50858634  0.34482469    -0.02000
Br4411     Br  0.90802435  0.53956862  0.34585911    -0.00600
Br4412     Br  0.83973802  0.55228109  0.35655235    -0.00700
Br4413     Br  0.88284031  0.92067737  0.32990498    -0.00600
Br4414     Br  0.81255491  0.93658881  0.33336166    -0.00600
C4415       C  0.61706015  0.56798769  0.33301610    -0.01700
C4416       C  0.63839736  0.05134254  0.34179121     0.07900
C4417       C  0.63123972  0.02525297  0.35045739    -0.01900
C4418       C  0.60278379  0.01683810  0.35098598    -0.01900
C4419       C  0.58193970  0.53263304  0.34148652     0.08100
C4420       C  0.58872431  0.55863841  0.33281473    -0.02000
Br4421     Br  0.55923597  0.58075796  0.32032830    -0.00600
Br4422     Br  0.62752085  0.60100140  0.31874015    -0.00700
Br4423     Br  0.59252916  0.98255415  0.36431132    -0.00600
Br4424     Br  0.66058544  0.99833101  0.35887182    -0.00600
C4425       C  0.69673730  0.77121908  0.09050003    -0.01700
C4426       C  0.71881321  0.76041381  0.10181389     0.07900
C4427       C  0.74317572  0.74707595  0.09392635    -0.01900
C4428       C  0.74494414  0.74312966  0.07484555    -0.01900
C4429       C  0.72260793  0.75361305  0.06323379     0.08100
C4430       C  0.69888898  0.76862952  0.07132810    -0.02000
Br4431     Br  0.66965398  0.78755588  0.05660606    -0.00600
Br4432     Br  0.66326491  0.78927335  0.10146135    -0.00700
Br4433     Br  0.77769267  0.72183460  0.06534307    -0.00600
Br4434     Br  0.77389195  0.73337752  0.10965116    -0.00600
C4435       C  0.71879787  0.77741435  0.24746499    -0.01700
C4436       C  0.73057970  0.75449760  0.23696706     0.07900
C4437       C  0.74592757  0.73198800  0.24580448    -0.01900
C4438       C  0.74948552  0.73240467  0.26493162    -0.01900
C4439       C  0.73875702  0.75588772  0.27532558     0.08100
C4440       C  0.72323644  0.77831961  0.26652532    -0.02000
Br4441     Br  0.70778107  0.81010930  0.28067531    -0.00600
Br4442     Br  0.69630169  0.80744646  0.23567316    -0.00700
Br4443     Br  0.76887731  0.70062052  0.27703753    -0.00600
Br4444     Br  0.76288884  0.70099620  0.23162391    -0.00600
C4445       C  0.70342023  0.98887251  0.09092596    -0.01700
C4446       C  0.72615322  0.50238785  0.10015746     0.07900
C4447       C  0.74983290  0.51216536  0.09028539    -0.01900
C4448       C  0.75073143  0.50934542  0.07112417    -0.01900
C4449       C  0.72751188  0.49676090  0.06149489     0.08100
C4450       C  0.70420881  0.98566017  0.07175867    -0.02000
Br4451     Br  0.67461506  0.96332562  0.06022279    -0.00600
Br4452     Br  0.67189176  0.97380531  0.10483708    -0.00700
Br4453     Br  0.78452841  0.52287430  0.05882434    -0.00600
Br4454     Br  0.78132911  0.52930198  0.10335009    -0.00600
C4455       C  0.78516203  0.86530317  0.16590795    -0.01700
C4456       C  0.75956274  0.85314401  0.17212497     0.07900
C4457       C  0.73731958  0.87071386  0.17923757    -0.01900
C4458       C  0.74010430  0.90063841  0.17935969    -0.01900
C4459       C  0.76548951  0.91299278  0.17279277     0.08100
C4460       C  0.78832769  0.89536664  0.16652685    -0.02000
Br4461     Br  0.82271983  0.91272907  0.15752845    -0.00600
Br4462     Br  0.81466073  0.84091567  0.15533927    -0.00700
Br4463     Br  0.70769989  0.92469244  0.18662104    -0.00600
Br4464     Br  0.70187454  0.85387723  0.18728570    -0.00600
C4465       C  0.66362126  0.61675197  0.16659895    -0.01700
C4466       C  0.68982246  0.60174477  0.16923647     0.07900
C4467       C  0.71512820  0.61689896  0.17281619    -0.01900
C4468       C  0.71436070  0.64703304  0.17347085    -0.01900
C4469       C  0.68824173  0.66217803  0.17068241     0.08100
C4470       C  0.66286738  0.64712559  0.16718660    -0.02000
Br4471     Br  0.62778212  0.66828342  0.16220059    -0.00600
Br4472     Br  0.62926870  0.59563591  0.16175823    -0.00700
Br4473     Br  0.74967499  0.66765700  0.17680490    -0.00600
Br4474     Br  0.75132596  0.59638613  0.17595803    -0.00600
C4475       C  0.74394900  0.54328599  0.26233067    -0.01700
C4476       C  0.73706491  0.01994329  0.27364278     0.07900
C4477       C  0.72909123  0.99349304  0.26578333    -0.01900
C4478       C  0.72747748  0.99063420  0.24664972    -0.01900
C4479       C  0.73510613  0.01389324  0.23526180     0.08100
C4480       C  0.74376250  0.54008328  0.24323195    -0.02000
Br4481     Br  0.75561780  0.57176438  0.22810889    -0.00600
Br4482     Br  0.75314406  0.57994514  0.27320506    -0.00700
Br4483     Br  0.71368418  0.95520700  0.23620301    -0.00600
Br4484     Br  0.71962010  0.96149714  0.28136088    -0.00600
C4485       C  0.01571866  0.74364797  0.08868645    -0.01700
C4486       C  0.54142605  0.73854881  0.09831658     0.07900
C4487       C  0.56654263  0.73174628  0.08851224    -0.01900
C4488       C  0.56612252  0.73028527  0.06920261    -0.01900
C4489       C  0.54063332  0.73737720  0.05920449     0.08100
C4490       C  0.01507760  0.74294737  0.06936923    -0.02000
Br4491     Br  0.97812251  0.74896881  0.05775760    -0.00600
Br4492     Br  0.98110914  0.75205356  0.10233755    -0.00700
Br4493     Br  0.60036034  0.71562603  0.05725483    -0.00600
Br4494     Br  0.60164966  0.72405543  0.10185633    -0.00600
C4495       C  0.01283803  0.77072363  0.26169324    -0.01700
C4496       C  0.01840296  0.74648874  0.27292000     0.07900
C4497       C  0.52913684  0.72067708  0.26485640    -0.01900
C4498       C  0.53559994  0.71972136  0.24603577    -0.01900
C4499       C  0.02859314  0.74344580  0.23461144     0.08100
C4500       C  0.01666688  0.76880588  0.24260210    -0.02000
Br4501     Br  0.00471081  0.80096149  0.22751116    -0.00600
Br4502     Br  0.00116655  0.80715254  0.27249787    -0.00700
Br4503     Br  0.55528217  0.68625836  0.23601832    -0.00600
Br4504     Br  0.53399105  0.68610816  0.27935404    -0.00600
C4505       C  0.55994840  0.99796362  0.06929341    -0.01700
C4506       C  0.53622067  0.49092464  0.05801177     0.07900
C4507       C  0.01034658  0.48246462  0.06680493    -0.01900
C4508       C  0.00844273  0.48150787  0.08601658    -0.01900
C4509       C  0.53164520  0.48950712  0.09691883     0.08100
C4510       C  0.55745879  0.99731106  0.08857488    -0.02000
Br4511     Br  0.58944432  0.00744518  0.10394979    -0.00600
Br4512     Br  0.59602412  0.00988879  0.05911909    -0.00700
Br4513     Br  0.97387501  0.46854548  0.09779662    -0.00600
Br4514     Br  0.97651075  0.47146979  0.05335841    -0.00600
C4515       C  0.58834856  0.85326058  0.16695161    -0.01700
C4516       C  0.56450203  0.83602522  0.17034507     0.07900
C4517       C  0.03752889  0.84873737  0.17417968    -0.01900
C4518       C  0.03418932  0.87873871  0.17410967    -0.01900
C4519       C  0.55776763  0.89608820  0.17016225     0.08100
C4520       C  0.58485363  0.88342548  0.16642090    -0.02000
Br4521     Br  0.61621097  0.90710751  0.15894297    -0.00600
Br4522     Br  0.62527174  0.83523161  0.16254700    -0.00700
Br4523     Br  0.99642156  0.89596529  0.17748130    -0.00600
Br4524     Br  0.00452211  0.82503063  0.17835542    -0.00600
C4525       C  0.51799762  0.62678914  0.17268638    -0.01700
C4526       C  0.49612948  0.64627882  0.16729164     0.07900
C4527       C  0.96945329  0.63625936  0.16119788    -0.01900
C4528       C  0.96541462  0.60642891  0.15923005    -0.01900
C4529       C  0.48736118  0.58692010  0.16472317     0.08100
C4530       C  0.51338148  0.59716622  0.17182930    -0.02000
Br4531     Br  0.54368660  0.57055080  0.17924150    -0.00600
Br4532     Br  0.55509693  0.64066704  0.18004614    -0.00700
Br4533     Br  0.93119903  0.59240666  0.14778643    -0.00600
Br4534     Br  0.93904265  0.66351595  0.15548092    -0.00600
C4535       C  0.98713972  0.96489320  0.25983210    -0.01700
C4536       C  0.99502729  0.48858128  0.27084447     0.07900
C4537       C  0.50545289  0.51350771  0.26203480    -0.01900
C4538       C  0.51022624  0.51362670  0.24296067    -0.01900
C4539       C  0.00111084  0.49047182  0.23199198     0.08100
C4540       C  0.98890993  0.96635611  0.24054813    -0.02000
Br4541     Br  0.97431675  0.93527768  0.22585865    -0.00600
Br4542     Br  0.97489916  0.92967411  0.27117908    -0.00700
Br4543     Br  0.53100457  0.54482793  0.23208649    -0.00600
Br4544     Br  0.51165795  0.54838162  0.27584216    -0.00600
loop_ 
_geom_bond_atom_site_label_1 
_geom_bond_atom_site_label_2 
_geom_bond_distance 
_geom_bond_site_symmetry_2 
_ccdc_geom_bond_type 
N1            C6   1.351   1_455  A
N1            C5   1.357       .  A
N1           H33   1.040   1_445  S
N2            C9   1.353       .  A
N2           C10   1.348       .  A
N3            C8   1.357       .  A
N3            C7   1.348       .  A
N3           H34   1.039       .  S
N4           C11   1.346       .  A
N4           C12   1.353       .  A
C5           C13   1.383       .  A
C5           C21   1.412   1_545  A
C6           C22   1.419       .  A
C6           C14   1.391   1_655  A
C7           C15   1.386       .  A
C7         C2296   1.411       .  A
C8           C16   1.387       .  A
C8         C1159   1.420       .  A
C9           C17   1.383       .  A
C9         C1157   1.407       .  A
C10          C24   1.412       .  A
C10          C18   1.389       .  A
C11          C19   1.388       .  A
C11        C2294   1.412       .  A
C12          C20   1.385       .  A
C12          C23   1.419   1_545  A
C13          C14   1.375       .  A
C13          H25   1.082       .  S
C14          H26   1.082       .  S
C15          C16   1.379       .  A
C15          H27   1.082       .  S
C16          H28   1.082       .  S
C17          C18   1.371       .  A
C17          H29   1.082       .  S
C18          H30   1.082       .  S
C19          C20   1.378       .  A
C19          H31   1.083       .  S
C20          H32   1.082       .  S
C21        C1145   1.407       .  A
C21        C1101   1.497       .  S
C22        C2283   1.412       .  A
C22        C1121   1.476       .  S
C23        C1144   1.420       .  A
C23        C1131   1.511       .  S
C24        C2279   1.411       .  A
C24        C1111   1.474       .  S
N35          C40   1.358       .  A
N35          C39   1.350       .  A
N35          H67   1.040       .  S
N36          C43   1.343       .  A
N36          C44   1.351       .  A
N37          C42   1.345       .  A
N37          C41   1.357       .  A
N37          H68   1.040       .  S
N38          C45   1.355       .  A
N38          C46   1.349       .  A
C39          C47   1.391       .  A
C39          C55   1.419       .  A
C40          C56   1.414       .  A
C40          C48   1.383       .  A
C41          C49   1.387       .  A
C41          C58   1.419       .  A
C42          C50   1.386       .  A
C42        C2329   1.408       .  A
C43          C51   1.387       .  A
C43        C2327   1.406       .  A
C44          C58   1.414       .  A
C44          C52   1.385       .  A
C45          C53   1.383       .  A
C45          C56   1.411       .  A
C46          C54   1.389       .  A
C46          C57   1.415       .  A
C47          C48   1.377       .  A
C47          H59   1.082       .  S
C48          H60   1.082       .  S
C49          C50   1.378       .  A
C49          H61   1.082       .  S
C50          H62   1.082       .  S
C51          C52   1.377       .  A
C51          H63   1.082       .  S
C52          H64   1.082       .  S
C53          C54   1.372       .  A
C53          H65   1.082       .  S
C54          H66   1.082       .  S
C55        C2315   1.406       .  A
C55        C1108   1.473       .  S
C56        C1078   1.503       .  S
C57        C2314   1.408       .  A
C57        C1118   1.472   1_455  S
C58        C1091   1.507       .  S
N69          C74   1.354       .  A
N69          C73   1.351       .  A
N69         H101   1.040       .  S
N70          C77   1.342       .  A
N70          C78   1.348       .  A
N71          C76   1.345       .  A
N71          C75   1.354       .  A
N71         H102   1.039       .  S
N72          C79   1.353       .  A
N72          C80   1.351       .  A
C73          C81   1.390       .  A
C73          C89   1.415       .  A
C74          C82   1.385       .  A
C74        C1226   1.410       .  A
C75          C83   1.388       .  A
C75        C1228   1.418       .  A
C76          C91   1.406       .  A
C76          C84   1.386       .  A
C77          C89   1.403       .  A
C77          C85   1.386       .  A
C78          C92   1.413       .  A
C78          C86   1.387       .  A
C79          C87   1.384       .  A
C79          C90   1.411       .  A
C80          C88   1.387       .  A
C80          C91   1.414       .  A
C81          C82   1.371       .  A
C81          H93   1.082       .  S
C82          H94   1.082       .  S
C83          C84   1.379       .  A
C83          H95   1.082       .  S
C84          H96   1.082       .  S
C85          C86   1.378       .  A
C85          H97   1.082       .  S
C86          H98   1.082       .  S
C87          C88   1.374       .  A
C87          H99   1.082       .  S
C88         H100   1.082       .  S
C89        C1051   1.474       .  S
C90        C1210   1.410   1_545  A
C90        C1038   1.491       .  S
C91        C1058   1.477       .  S
C92        C1211   1.418       .  A
C92        C1071   1.496       .  S
N103        C108   1.354       .  A
N103        C107   1.350       .  A
N103        H135   1.039       .  S
N104        C111   1.344       .  A
N104        C112   1.349       .  A
N105        C110   1.346       .  A
N105        C109   1.356       .  A
N105        H136   1.037       .  S
N106        C113   1.354       .  A
N106        C114   1.351       .  A
C107        C115   1.390       .  A
C107        C123   1.416       .  A
C108        C124   1.410       .  A
C108        C116   1.384       .  A
C109        C117   1.387       .  A
C109        C126   1.419       .  A
C110        C125   1.410       .  A
C110        C118   1.386       .  A
C111        C123   1.406       .  A
C111        C119   1.387       .  A
C112        C126   1.412       .  A
C112        C120   1.386       .  A
C113        C121   1.385       .  A
C113        C124   1.411       .  A
C114        C122   1.388       .  A
C114        C125   1.413       .  A
C115        C116   1.376       .  A
C115        H127   1.082       .  S
C116        H128   1.082       .  S
C117        C118   1.380       .  A
C117        H129   1.082       .  S
C118        H130   1.082       .  S
C119        C120   1.374       .  A
C119        H131   1.082       .  S
C120        H132   1.082       .  S
C121        C122   1.369       .  A
C121        H133   1.082       .  S
C122        H134   1.082       .  S
C123       C1048   1.472       .  S
C124       C1018   1.494       .  S
C125       C1061   1.477       .  S
C126       C1028   1.498       .  S
N137        C142   1.341       .  A
N137        C141   1.354       .  A
N137        H169   1.041   1_545  S
N138        C145   1.354       .  A
N138        C146   1.342       .  A
N139        C144   1.361       .  A
N139        C143   1.349       .  A
N139        H170   1.042       .  S
N140        C147   1.346       .  A
N140        C148   1.354   1_545  A
C141        C149   1.384       .  A
C141       C2429   1.407   1_455  A
C142        C158   1.403       .  A
C142        C150   1.389       .  A
C143        C151   1.391       .  A
C143        C160   1.418       .  A
C144        C159   1.418       .  A
C144        C152   1.384       .  A
C145        C157   1.411   1_565  A
C145        C153   1.381       .  A
C146        C160   1.412       .  A
C146        C154   1.392       .  A
C147        C155   1.389       .  A
C147        C158   1.412       .  A
C148        C156   1.384       .  A
C148       C2431   1.413   1_455  A
C149        C150   1.374       .  A
C149        H161   1.082       .  S
C150        H162   1.082       .  S
C151        C152   1.378       .  A
C151        H163   1.082       .  S
C152        H164   1.082       .  S
C153        C154   1.377       .  A
C153        H165   1.082       .  S
C154        H166   1.082       .  S
C155        C156   1.376   1_545  A
C155        H167   1.083       .  S
C156        H168   1.082       .  S
C157       C2413   1.407       .  A
C157        C991   1.501       .  S
C158       C1011   1.462       .  S
C159       C2420   1.413       .  A
C159       C1128   1.516       .  S
C160       C1001   1.467       .  S
N171        C176   1.342       .  A
N171        C175   1.352       .  A
N171        H203   1.039       .  S
N172        C179   1.352       .  A
N172        C180   1.342       .  A
N173        C178   1.357       .  A
N173        C177   1.349       .  A
N173        H204   1.041       .  S
N174        C181   1.346       .  A
N174        C182   1.352       .  A
C175        C183   1.386       .  A
C175       C2463   1.410   1_455  A
C176        C192   1.402       .  A
C176        C184   1.387       .  A
C177        C185   1.391       .  A
C177        C194   1.417       .  A
C178        C193   1.415       .  A
C178        C186   1.384       .  A
C179        C191   1.409       .  A
C179        C187   1.382       .  A
C180        C194   1.410       .  A
C180        C188   1.391       .  A
C181        C189   1.388       .  A
C181        C192   1.410       .  A
C182        C190   1.383       .  A
C182       C2465   1.408       .  A
C183        C184   1.376       .  A
C183        H195   1.082       .  S
C184        H196   1.082       .  S
C185        C186   1.378       .  A
C185        H197   1.082       .  S
C186        H198   1.082       .  S
C187        C188   1.376       .  A
C187        H199   1.082       .  S
C188        H200   1.082       .  S
C189        C190   1.372       .  A
C189        H201   1.081       .  S
C190        H202   1.082       .  S
C191       C2447   1.410       .  A
C191        C961   1.495       .  S
C192        C978   1.464       .  S
C193       C2454   1.408       .  A
C193       C1088   1.504       .  S
C194        C968   1.469       .  S
N205        C210   1.356       .  A
N205        C209   1.345       .  A
N205        H237   1.036       .  S
N206        C213   1.346       .  A
N206        C214   1.353       .  A
N207        C212   1.346       .  A
N207        C211   1.355       .  A
N207        H238   1.040       .  S
N208        C215   1.350       .  A
N208        C216   1.342       .  A
C209        C217   1.388       .  A
C209        C225   1.412       .  A
C210        C226   1.420       .  A
C210        C218   1.386       .  A
C211        C219   1.382       .  A
C211        C228   1.405       .  A
C212        C227   1.414       .  A
C212        C220   1.392       .  A
C213        C225   1.413       .  A
C213        C221   1.392       .  A
C214        C228   1.401       .  A
C214        C222   1.380       .  A
C215        C223   1.385       .  A
C215        C226   1.412       .  A
C216        C224   1.388       .  A
C216        C227   1.407       .  A
C217        C218   1.381       .  A
C217        H229   1.083       .  S
C218        H230   1.082       .  S
C219        C220   1.372       .  A
C219        H231   1.082       .  S
C220        H232   1.082       .  S
C221        C222   1.365       .  A
C221        H233   1.081       .  S
C222        H234   1.082       .  S
C223        C224   1.377       .  A
C223        H235   1.082       .  S
C224        H236   1.082       .  S
C225       C1008   1.468       .  S
C226        C951   1.498       .  S
C227        C998   1.464       .  S
C228       C1068   1.488       .  S
N239        C244   1.354       .  A
N239        C243   1.344       .  A
N239        H271   1.030       .  S
N240        C247   1.348       .  A
N240        C248   1.354       .  A
N241        C246   1.351       .  A
N241        C245   1.359       .  A
N241        H272   1.034       .  S
N242        C249   1.352       .  A
N242        C250   1.342       .  A
C243        C251   1.386       .  A
C243        C259   1.403       .  A
C244        C260   1.414       .  A
C244        C252   1.387       .  A
C245        C253   1.384       .  A
C245        C262   1.415       .  A
C246        C261   1.419       .  A
C246        C254   1.390       .  A
C247        C259   1.415       .  A
C247        C255   1.389       .  A
C248        C262   1.408       .  A
C248        C256   1.383       .  A
C249        C257   1.383       .  A
C249        C260   1.412       .  A
C250        C258   1.390       .  A
C250        C261   1.410       .  A
C251        C252   1.375       .  A
C251        H263   1.082       .  S
C252        H264   1.082       .  S
C253        C254   1.374       .  A
C253        H265   1.082       .  S
C254        H266   1.082       .  S
C255        C256   1.368       .  A
C255        H267   1.081       .  S
C256        H268   1.082       .  S
C257        C258   1.378       .  A
C257        H269   1.082       .  S
C258        H270   1.082       .  S
C259        C981   1.467       .  S
C260        C938   1.497       .  S
C261        C971   1.469       .  S
C262       C1031   1.499       .  S
O273       Cu281   2.015       .  S
O273        C283   1.277       .  A
O274       Cu281   2.019       .  S
O274        C284   1.277       .  A
O275       Cu281   2.100       .  S
O275        C285   1.289       .  A
O276      Cu2553   2.118   1_455  S
O276        C286   1.291       .  A
O277      Cu2554   2.107   1_455  S
O277       C1422   1.289       .  A
O278       Cu282   2.112       .  S
O278       C1421   1.290       .  A
O279       Cu282   2.041       .  S
O279       C1420   1.280       .  A
O280       Cu282   2.049       .  S
O280       C1419   1.282       .  A
Cu281      O2548   2.118       .  S
Cu281     Cu1418   2.344       .  S
Cu282      O2549   2.107       .  S
Cu282     Cu1417   2.344       .  S
C283        C988   1.499       .  S
C283       O1416   1.282       .  A
C284        C928   1.516       .  S
C284       O1415   1.280       .  A
C285        C908   1.569       .  S
C285       O1414   1.290       .  A
C286        C918   1.570       .  S
C286       O1413   1.289       .  A
O287       Cu295   2.032       .  S
O287        C297   1.280       .  A
O288       Cu295   2.021       .  S
O288        C298   1.279       .  A
O289       Cu295   2.101       .  S
O289        C299   1.288       .  A
O290      Cu2567   2.117   1_455  S
O290        C300   1.290       .  A
O291      Cu2568   2.111   1_455  S
O291        C300   1.290       .  A
O292       Cu296   2.111       .  S
O292        C299   1.290       .  A
O293       Cu296   2.007       .  S
O293        C298   1.276       .  A
O294       Cu296   2.021       .  S
O294        C297   1.278       .  A
Cu295      O2562   2.117       .  S
Cu295      Cu296   2.348       .  S
Cu296      O2563   2.111       .  S
C297        C958   1.497       .  S
C298        C898   1.501       .  S
C299        C878   1.554       .  S
C300        C891   1.579       .  S
O301       Cu309   2.108       .  S
O301        C311   1.289       .  A
O302       Cu309   2.117       .  S
O302        C312   1.291       .  A
O303       Cu309   2.030       .  S
O303       C1449   1.279       .  A
O304       Cu309   2.038       .  S
O304        C314   1.280       .  A
O305       Cu310   2.018       .  S
O305       C1450   1.277       .  A
O306       Cu310   2.011       .  S
O306        C313   1.278       .  A
O307       Cu310   2.101       .  S
O307       C1448   1.289       .  A
O308       Cu310   2.116       .  S
O308       C1447   1.291       .  A
Cu309     Cu1446   2.348       .  S
Cu310     Cu1445   2.348       .  S
C311       C2057   1.564       .  S
C311       O1444   1.291       .  A
C312       C2047   1.565       .  S
C312       O1443   1.289       .  A
C313        C948   1.496       .  S
C313       O1439   1.279       .  A
C314        C868   1.510       .  S
C314       O1441   1.277       .  A
O315       Cu323   2.019       .  S
O315        C325   1.277       .  A
O316       Cu323   2.021       .  S
O316        C326   1.278       .  A
O317       Cu323   2.099       .  S
O317        C327   1.289       .  A
O318       Cu323   2.124       .  S
O318        C328   1.291       .  A
O319       Cu324   2.105       .  S
O319        C328   1.288       .  A
O320       Cu324   2.099       .  S
O320        C327   1.288       .  A
O321       Cu324   2.023       .  S
O321        C326   1.280       .  A
O322       Cu324   2.029       .  S
O322        C325   1.278       .  A
Cu323      Cu324   2.346       .  S
C325        C858   1.514       .  S
C326        C941   1.493       .  S
C327        C881   1.551       .  S
C328        C888   1.582       .  S
O329       Cu337   2.098   1_545  S
O329        C339   1.288       .  A
O330      Cu1473   2.090       .  S
O330        C340   1.287       .  A
O331       Cu337   2.052   1_556  S
O331        C341   1.283       .  A
O332       Cu337   2.051       .  S
O332        C342   1.282       .  A
O333       Cu338   2.005       .  S
O333       C2614   1.274       .  A
O334       Cu338   2.014   1_556  S
O334       C2613   1.277       .  A
O335      Cu1474   2.110       .  S
O335       C2612   1.290       .  A
O336       Cu338   2.100   1_545  S
O336       C2611   1.289       .  A
Cu337      O1466   2.090       .  S
Cu337     Cu2610   2.349       .  S
Cu338      O1471   2.111       .  S
Cu338     Cu2609   2.349       .  S
C339        C841   1.555       .  S
C339       O2608   1.289       .  A
C340        C828   1.556       .  S
C340       O2607   1.291       .  A
C341       C1987   1.498       .  S
C341       O2606   1.277       .  A
C342       C1098   1.515       .  S
C342       O2605   1.274       .  A
O343       Cu351   2.099       .  S
O343       C2625   1.288       .  A
O344       Cu351   2.087       .  S
O344       C2626   1.286       .  A
O345       Cu351   2.023       .  S
O345       C2627   1.277       .  A
O346       Cu351   2.016   1_556  S
O346       C2628   1.279       .  A
O347       Cu352   2.030   1_556  S
O347        C356   1.279       .  A
O348       Cu352   2.032       .  S
O348        C355   1.279       .  A
O349       Cu352   2.108       .  S
O349        C354   1.290       .  A
O350       Cu352   2.099       .  S
O350        C353   1.289       .  A
Cu351     Cu2624   2.349       .  S
Cu352     Cu2623   2.349       .  S
C353        C831   1.555       .  S
C353       O2615   1.288       .  A
C354        C838   1.554       .  S
C354       O2616   1.286       .  A
C355       C1081   1.518       .  S
C355       O2617   1.277       .  A
C356        C818   1.493       .  S
C356       O2618   1.279       .  A
O357       Cu365   2.023       .  S
O357        C367   1.279       .  A
O358       Cu365   2.032   1_556  S
O358        C368   1.280       .  A
O359      Cu1501   2.090       .  S
O359        C369   1.287       .  A
O360       Cu365   2.097   1_545  S
O360        C370   1.287       .  A
O361       Cu366   2.104   1_545  S
O361        C370   1.289       .  A
O362      Cu1502   2.100       .  S
O362        C369   1.288       .  A
O363       Cu366   2.016   1_556  S
O363        C368   1.277       .  A
O364       Cu366   2.009       .  S
O364        C367   1.276       .  A
Cu365      O1495   2.091       .  S
Cu365      Cu366   2.347       .  S
Cu366      O1498   2.100       .  S
C367       C1041   1.502       .  S
C368        C811   1.503       .  S
C369        C791   1.551       .  S
C370        C798   1.564       .  S
O371       Cu379   2.092       .  S
O371        C381   1.287       .  A
O372       Cu379   2.096       .  S
O372        C382   1.288       .  A
O373       Cu379   2.016   1_556  S
O373        C383   1.278       .  A
O374       Cu379   2.020       .  S
O374        C384   1.278       .  A
O375       Cu380   2.016       .  S
O375        C384   1.277       .  A
O376       Cu380   2.023   1_556  S
O376        C383   1.278       .  A
O377       Cu380   2.098       .  S
O377        C382   1.288       .  A
O378       Cu380   2.091       .  S
O378        C381   1.288       .  A
Cu379      Cu380   2.346       .  S
C381        C788   1.549       .  S
C382        C801   1.561       .  S
C383        C778   1.506       .  S
C384       C1021   1.503       .  S
N385        C390   1.345       .  A
N385        C389   1.359       .  A
N385        H417   1.039       .  S
N386        C393   1.350       .  A
N386        C394   1.342   1_455  A
N387        C391   1.350       .  A
N387       C2664   1.358   1_655  A
N387        H418   1.040       .  S
N388        C395   1.348       .  A
N388       C2668   1.355       .  A
C389        C397   1.384       .  A
C389        C405   1.418       .  A
C390        C406   1.413       .  A
C390        C398   1.388       .  A
C391        C408   1.419       .  A
C391       C2671   1.391       .  A
C392       N2659   1.358       .  A
C392        C400   1.383       .  A
C392       C1543   1.415       .  A
C393        C401   1.385   1_455  A
C393       C1541   1.411   1_545  A
C394        C408   1.406       .  A
C394        C402   1.388       .  A
C395        C406   1.414       .  A
C395       C2675   1.389       .  A
C396       N2660   1.355       .  A
C396        C404   1.384       .  A
C396        C407   1.413       .  A
C397        C398   1.379       .  A
C397        H409   1.082       .  S
C398        H410   1.081       .  S
C399        C400   1.375       .  A
C399       C2663   1.391       .  A
C399        H411   1.081       .  S
C400        H412   1.082       .  S
C401        C402   1.373       .  A
C401        H413   1.082       .  S
C402        H414   1.082       .  S
C403        C404   1.377       .  A
C403       C2667   1.389       .  A
C403        H415   1.082       .  S
C404        H416   1.082       .  S
C405       C1529   1.411       .  A
C405        C848   1.505       .  S
C406        C748   1.473       .  S
C407       C1528   1.415       .  A
C407        C771   1.508       .  S
C408        C761   1.470       .  S
N419        C424   1.358       .  A
N419        C423   1.346       .  A
N419        H451   1.030       .  S
N420        C427   1.350       .  A
N420       C2700   1.354       .  A
N421        C426   1.351       .  A
N421       C2697   1.358       .  A
N421        H452   1.038       .  S
N422        C429   1.349       .  A
N422        C430   1.342   1_455  A
C423        C431   1.386       .  A
C423        C439   1.414       .  A
C424        C440   1.423       .  A
C424        C432   1.386       .  A
C425       N2693   1.358       .  A
C425        C433   1.382       .  A
C425        C442   1.411       .  A
C426        C441   1.420       .  A
C426       C2706   1.391       .  A
C427        C439   1.417       .  A
C427       C2707   1.390       .  A
C428       N2692   1.354       .  A
C428        C442   1.409       .  A
C428        C436   1.382       .  A
C429        C437   1.386   1_455  A
C429        C440   1.413       .  A
C430        C438   1.388       .  A
C430        C441   1.406       .  A
C431        C432   1.382       .  A
C431        H443   1.082       .  S
C432        H444   1.082       .  S
C433        C434   1.371       .  A
C433        H445   1.082       .  S
C434       C2698   1.391       .  A
C434        H446   1.081       .  S
C435        C436   1.372       .  A
C435       C2699   1.390       .  A
C435        H447   1.082       .  S
C436        H448   1.082       .  S
C437        C438   1.374       .  A
C437        H449   1.082       .  S
C438        H450   1.083       .  S
C439        C751   1.476       .  S
C440        C821   1.500       .  S
C441        C758   1.471       .  S
C442        C738   1.497       .  S
N453        C458   1.356       .  A
N453        C457   1.351       .  A
N453        H485   1.039   1_545  S
N454        C461   1.345       .  A
N454        C462   1.351       .  A
N455        C460   1.345       .  A
N455        C459   1.353       .  A
N455        H486   1.038       .  S
N456        C463   1.353       .  A
N456        C464   1.350       .  A
C457        C465   1.390       .  A
C457        C473   1.418       .  A
C458        C474   1.414   1_545  A
C458        C466   1.385       .  A
C459        C467   1.389       .  A
C459       C1612   1.418       .  A
C460        C475   1.405       .  A
C460        C468   1.385       .  A
C461        C473   1.408       .  A
C461        C469   1.386       .  A
C462        C476   1.418   1_545  A
C462        C470   1.387       .  A
C463        C471   1.384       .  A
C463       C1610   1.410       .  A
C464        C472   1.388       .  A
C464        C475   1.412       .  A
C465        C466   1.371       .  A
C465        H477   1.082       .  S
C466        H478   1.082       .  S
C467        C468   1.379       .  A
C467        H479   1.082       .  S
C468        H480   1.082       .  S
C469        C470   1.376       .  A
C469        H481   1.082       .  S
C470        H482   1.082       .  S
C471        C472   1.371       .  A
C471        H483   1.082       .  S
C472        H484   1.082       .  S
C473        C718   1.475       .  S
C474       C1599   1.410       .  A
C474        C808   1.495       .  S
C475        C708   1.475       .  S
C476       C1595   1.417       .  A
C476        C728   1.499       .  S
N487        C492   1.352       .  A
N487        C491   1.354       .  A
N487        H519   1.040       .  S
N488        C495   1.355       .  A
N488        C496   1.351       .  A
N489        C494   1.354       .  A
N489        C493   1.345       .  A
N489        H520   1.036       .  S
N490        C497   1.342       .  A
N490        C498   1.347       .  A
C491        C499   1.385       .  A
C491        C507   1.411       .  A
C492        C508   1.416       .  A
C492        C500   1.389       .  A
C493        C501   1.388       .  A
C493        C510   1.409       .  A
C494        C509   1.415       .  A
C494        C502   1.386       .  A
C495        C507   1.412       .  A
C495        C503   1.384       .  A
C496        C510   1.417       .  A
C496        C504   1.388       .  A
C497        C505   1.387       .  A
C497        C508   1.403       .  A
C498        C506   1.385       .  A
C498        C509   1.408       .  A
C499        C500   1.375       .  A
C499        H511   1.082       .  S
C500        H512   1.082       .  S
C501        C502   1.377       .  A
C501        H513   1.082       .  S
C502        H514   1.082       .  S
C503        C504   1.375       .  A
C503        H515   1.082       .  S
C504        H516   1.083       .  S
C505        C506   1.375       .  A
C505        H517   1.083       .  S
C506        H518   1.082       .  S
C507        C781   1.495       .  S
C508        C711   1.473       .  S
C509        C698   1.489       .  S
C510        C721   1.474       .  S
N521        C526   1.358       .  A
N521        C525   1.352       .  A
N521        H553   1.042   1_455  S
N522        C529   1.343       .  A
N522        C530   1.350       .  A
N523        C528   1.346       .  A
N523        C527   1.358       .  A
N523        H554   1.041       .  S
N524        C531   1.355       .  A
N524        C532   1.351       .  A
C525        C533   1.389       .  A
C525        C541   1.418       .  A
C526        C534   1.385       .  A
C526       C2814   1.415   1_455  A
C527        C535   1.387       .  A
C527        C544   1.422       .  A
C528        C543   1.410       .  A
C528        C536   1.386       .  A
C529        C541   1.405       .  A
C529        C537   1.387       .  A
C530        C538   1.385       .  A
C530       C2816   1.416   1_455  A
C531        C539   1.383       .  A
C531        C542   1.411       .  A
C532        C540   1.388       .  A
C532        C543   1.415       .  A
C533        C534   1.374       .  A
C533        H545   1.083       .  S
C534        H546   1.082       .  S
C535        C536   1.380       .  A
C535        H547   1.082       .  S
C536        H548   1.082       .  S
C537        C538   1.377       .  A
C537        H549   1.081       .  S
C538        H550   1.082       .  S
C539        C540   1.372       .  A
C539        H551   1.082       .  S
C540        H552   1.082       .  S
C541        C688   1.479       .  S
C542       C2798   1.415       .  A
C542        C931   1.502       .  S
C543        C678   1.475       .  S
C544       C2802   1.416       .  A
C544        C768   1.510       .  S
N555        C560   1.350       .  A
N555        C559   1.355       .  A
N555        H587   1.041       .  S
N556        C563   1.354       .  A
N556        C564   1.348       .  A
N557        C562   1.355       .  A
N557        C561   1.342       .  A
N557        H588   1.039       .  S
N558        C565   1.340       .  A
N558        C566   1.349       .  A
C559        C567   1.385       .  A
C559       C2847   1.412   1_455  A
C560        C576   1.414       .  A
C560        C568   1.389       .  A
C561        C569   1.388       .  A
C561        C578   1.406       .  A
C562        C577   1.416       .  A
C562        C570   1.386       .  A
C563        C575   1.410       .  A
C563        C571   1.383       .  A
C564        C578   1.415       .  A
C564        C572   1.390       .  A
C565        C573   1.387       .  A
C565        C576   1.404       .  A
C566        C574   1.385       .  A
C566       C2849   1.412       .  A
C567        C568   1.375       .  A
C567        H579   1.082       .  S
C568        H580   1.082       .  S
C569        C570   1.381       .  A
C569        H581   1.082       .  S
C570        H582   1.082       .  S
C571        C572   1.374       .  A
C571        H583   1.082       .  S
C572        H584   1.082       .  S
C573        C574   1.378       .  A
C573        H585   1.082       .  S
C574        H586   1.082       .  S
C575       C2831   1.412       .  A
C575        C901   1.496       .  S
C576        C668   1.469       .  S
C577       C2838   1.412       .  A
C577        C741   1.500       .  S
C578        C658   1.469       .  S
N589        C594   1.355       .  A
N589        C593   1.349       .  A
N589        H621   1.036       .  S
N590        C597   1.349       .  A
N590        C598   1.353   1_545  A
N591        C596   1.351       .  A
N591        C595   1.356       .  A
N591        H622   1.038       .  S
N592        C599   1.353   1_565  A
N592        C600   1.348       .  A
C593        C601   1.389       .  A
C593        C609   1.416       .  A
C594        C610   1.415       .  A
C594        C602   1.385       .  A
C595        C603   1.385       .  A
C595        C612   1.413       .  A
C596        C611   1.417       .  A
C596        C604   1.390       .  A
C597        C609   1.416       .  A
C597        C605   1.389       .  A
C598        C612   1.413       .  A
C598        C606   1.385   1_565  A
C599        C607   1.384   1_545  A
C599        C610   1.414       .  A
C600        C608   1.388       .  A
C600        C611   1.414       .  A
C601        C602   1.375       .  A
C601        H613   1.082       .  S
C602        H614   1.082       .  S
C603        C604   1.370       .  A
C603        H615   1.082       .  S
C604        H616   1.082       .  S
C605        C606   1.371       .  A
C605        H617   1.082       .  S
C606        H618   1.082   1_545  S
C607        C608   1.373       .  A
C607        H619   1.082       .  S
C608        H620   1.081       .  S
C609        C691   1.478       .  S
C610        C871   1.498       .  S
C611        C681   1.479       .  S
C612        C731   1.498       .  S
N623        C628   1.354       .  A
N623        C627   1.348       .  A
N623        H655   1.040       .  S
N624        C631   1.341       .  A
N624        C632   1.348       .  A
N625        C630   1.345       .  A
N625        C629   1.355       .  A
N625        H656   1.040       .  S
N626        C633   1.354       .  A
N626        C634   1.347       .  A
C627        C635   1.391       .  A
C627        C643   1.415       .  A
C628        C644   1.409       .  A
C628        C636   1.383       .  A
C629        C637   1.385       .  A
C629        C646   1.413       .  A
C630        C645   1.408       .  A
C630        C638   1.388       .  A
C631        C643   1.404       .  A
C631        C639   1.388       .  A
C632        C646   1.408       .  A
C632        C640   1.385       .  A
C633        C641   1.382       .  A
C633        C644   1.408       .  A
C634        C642   1.390       .  A
C634        C645   1.413       .  A
C635        C636   1.376       .  A
C635        H647   1.082       .  S
C636        H648   1.082       .  S
C637        C638   1.379       .  A
C637        H649   1.082       .  S
C638        H650   1.082       .  S
C639        C640   1.375       .  A
C639        H651   1.082       .  S
C640        H652   1.082       .  S
C641        C642   1.374       .  A
C641        H653   1.082       .  S
C642        H654   1.082       .  S
C643        C671   1.466       .  S
C644        C861   1.496       .  S
C645        C661   1.468       .  S
C646        C701   1.493       .  S
C657        C658   1.405       .  A
C657        C662   1.403       .  A
C657       Br664   1.927       .  S
C658        C659   1.410       .  A
C659        C660   1.394       .  A
C659       Br666   1.933       .  S
C660        C661   1.407       .  A
C660       Br665   1.937       .  S
C661        C662   1.407       .  A
C662       Br663   1.926       .  S
C667        C668   1.410       .  A
C667        C672   1.394       .  A
C667       Br674   1.932       .  S
C668        C669   1.406       .  A
C669        C670   1.401       .  A
C669       Br676   1.925       .  S
C670        C671   1.405       .  A
C670       Br675   1.927       .  S
C671        C672   1.406       .  A
C672       Br673   1.935       .  S
C677        C682   1.396       .  A
C677       C1814   1.407   1_545  A
C677       Br684   1.934       .  S
C678        C679   1.408       .  A
C678       C1813   1.407       .  A
C679        C680   1.406       .  A
C679       Br686   1.926       .  S
C680       C1817   1.408       .  A
C680       Br685   1.927       .  S
C681        C682   1.410   1_565  A
C681       C1816   1.408       .  A
C682       Br683   1.935       .  S
C687        C692   1.406       .  A
C687       C1824   1.406       .  A
C687       Br694   1.923       .  S
C688        C689   1.413       .  A
C688       C1823   1.406       .  A
C689        C690   1.396       .  A
C689       Br696   1.935       .  S
C690       C1827   1.405       .  A
C690       Br695   1.931       .  S
C691        C692   1.410       .  A
C691       C1826   1.405       .  A
C692       Br693   1.928       .  S
C697        C698   1.408       .  A
C697        C702   1.408       .  A
C697       Br704   1.929       .  S
C698        C699   1.409       .  A
C699        C700   1.409       .  A
C699       Br706   1.929       .  S
C700        C701   1.411       .  A
C700       Br705   1.929       .  S
C701        C702   1.412       .  A
C702       Br703   1.929       .  S
C707        C708   1.411       .  A
C707        C712   1.396       .  A
C707       Br714   1.935       .  S
C708        C709   1.407       .  A
C709        C710   1.404       .  A
C709       Br716   1.924       .  S
C710        C711   1.406       .  A
C710       Br715   1.926       .  S
C711        C712   1.408       .  A
C712       Br713   1.936       .  S
C717        C718   1.408       .  A
C717        C722   1.394       .  A
C717       Br724   1.935       .  S
C718        C719   1.408       .  A
C719        C720   1.407       .  A
C719       Br726   1.926       .  S
C720        C721   1.408       .  A
C720       Br725   1.925       .  S
C721        C722   1.409       .  A
C722       Br723   1.936       .  S
C727        C728   1.412   1_545  A
C727        C732   1.405       .  A
C727       Br734   1.931       .  S
C728       C1865   1.415       .  A
C729        C730   1.410       .  A
C729       C1864   1.415       .  A
C729       Br736   1.930       .  S
C730       C1867   1.412       .  A
C730       Br735   1.930       .  S
C731        C732   1.411   1_565  A
C731       C1866   1.412       .  A
C732       Br733   1.931       .  S
C737        C738   1.409       .  A
C737        C742   1.410       .  A
C737       Br744   1.928       .  S
C738       C3011   1.410       .  A
C739        C740   1.411       .  A
C739       C3010   1.410       .  A
C739       Br746   1.928       .  S
C740       C3013   1.412       .  A
C740       Br745   1.928       .  S
C741        C742   1.413       .  A
C741       C3012   1.412       .  A
C742       Br743   1.924       .  S
C747        C748   1.407       .  A
C747        C752   1.407       .  A
C747       Br754   1.927       .  S
C748       C3021   1.406       .  A
C749        C750   1.395       .  A
C749       C3020   1.406       .  A
C749       Br756   1.935       .  S
C750       C3023   1.410       .  A
C750       Br755   1.935       .  S
C751        C752   1.410       .  A
C751       C3022   1.410       .  A
C752       Br753   1.926       .  S
C757        C758   1.411   1_455  A
C757        C762   1.394       .  A
C757       Br764   1.936       .  S
C758       C3031   1.406       .  A
C759        C760   1.402       .  A
C759       C3030   1.406       .  A
C759       Br766   1.925       .  S
C760       C3033   1.406       .  A
C760       Br765   1.927       .  S
C761        C762   1.406   1_655  A
C761       C3032   1.406       .  A
C762       Br763   1.933       .  S
C767        C772   1.413       .  A
C767       C1904   1.414       .  A
C767       Br774   1.931       .  S
C768       C1903   1.414       .  A
C768       C3041   1.417       .  A
C769        C770   1.413       .  A
C769       C3040   1.417   1_455  A
C769       Br776   1.933       .  S
C770       C3043   1.413       .  A
C770       Br775   1.930       .  S
C771       C3042   1.413       .  A
C771       C1908   1.414       .  A
C772       C1907   1.414       .  A
C772       Br773   1.930       .  S
C777        C778   1.426       .  A
C777        C782   1.414       .  A
C777       Br784   1.934       .  S
C778        C779   1.424       .  A
C779        C780   1.410       .  A
C779       Br786   1.934       .  S
C780        C781   1.405       .  A
C780       Br785   1.932       .  S
C781        C782   1.408       .  A
C782       Br783   1.933       .  S
C787        C788   1.422   1_556  A
C787        C792   1.434       .  A
C787       Br794   1.930       .  S
C788        C789   1.425       .  A
C789        C790   1.438       .  A
C789       Br796   1.931       .  S
C790        C791   1.426       .  A
C790       Br795   1.930       .  S
C791        C792   1.424   1_554  A
C792       Br793   1.930       .  S
C797        C798   1.430   1_556  A
C797        C802   1.441       .  A
C797       Br804   1.931       .  S
C798        C799   1.428       .  A
C799        C800   1.437       .  A
C799       Br806   1.928       .  S
C800        C801   1.425       .  A
C800       Br805   1.932       .  S
C801        C802   1.429   1_554  A
C802       Br803   1.933       .  S
C807        C812   1.412       .  A
C807       C1944   1.407       .  A
C807       Br814   1.933       .  S
C808        C809   1.406       .  A
C808       C1943   1.408   1_565  A
C809        C810   1.412       .  A
C809       Br816   1.934       .  S
C810        C811   1.424       .  A
C810       Br815   1.933       .  S
C811       C1948   1.421   1_565  A
C812       C1947   1.421       .  A
C812       Br813   1.931       .  S
C817        C822   1.410       .  A
C817       C3090   1.415       .  A
C817       Br824   1.932       .  S
C818        C819   1.415       .  A
C818       C3089   1.415       .  A
C819        C820   1.415       .  A
C819       Br826   1.931       .  S
C820        C821   1.412       .  A
C820       Br825   1.929       .  S
C821       C3094   1.408       .  A
C822       C3093   1.408       .  A
C822       Br823   1.929       .  S
C827        C828   1.425   1_556  A
C827        C832   1.437       .  A
C827       Br834   1.930       .  S
C828       C3101   1.425       .  A
C829        C830   1.439       .  A
C829       C3100   1.425       .  A
C829       Br836   1.925       .  S
C830       C3103   1.426       .  A
C830       Br835   1.930       .  S
C831        C832   1.425   1_554  A
C831       C3102   1.426       .  A
C832       Br833   1.930       .  S
C837        C842   1.437       .  A
C837       C3110   1.425   1_556  A
C837       Br844   1.930       .  S
C838        C839   1.424       .  A
C838       C3109   1.425   1_554  A
C839        C840   1.438       .  A
C839       Br846   1.927       .  S
C840        C841   1.426       .  A
C840       Br845   1.929       .  S
C841       C3114   1.425   1_554  A
C842       C3113   1.425   1_556  A
C842       Br843   1.929       .  S
C847        C852   1.415       .  A
C847       C3120   1.410       .  A
C847       Br854   1.929       .  S
C848       C3119   1.410       .  A
C848       C1985   1.413       .  A
C849        C850   1.415       .  A
C849       C1984   1.413   1_545  A
C849       Br856   1.930       .  S
C850       C1987   1.414   1_545  A
C850       Br855   1.928       .  S
C851       C1986   1.414       .  A
C851       C3124   1.417       .  A
C851       C1477   1.497       .  S
C852       C3123   1.417       .  A
C852       Br853   1.932       .  S
C857        C858   1.428       .  A
C857        C862   1.414       .  A
C857       Br864   1.934       .  S
C858        C859   1.429       .  A
C859        C860   1.413       .  A
C859       Br866   1.935       .  S
C860        C861   1.404       .  A
C860       Br865   1.933       .  S
C861        C862   1.405       .  A
C862       Br863   1.933       .  S
C867        C868   1.425       .  A
C867        C872   1.415       .  A
C867       Br874   1.933       .  S
C868       C2005   1.426   1_545  A
C869        C870   1.412       .  A
C869       C2004   1.426       .  A
C869       Br876   1.933       .  S
C870       C2007   1.405       .  A
C870       Br875   1.934       .  S
C871        C872   1.407       .  A
C871       C2006   1.405   1_545  A
C872       Br873   1.932       .  S
C877        C878   1.423       .  A
C877        C882   1.438       .  A
C877       Br884   1.927       .  S
C878        C879   1.426       .  A
C879        C880   1.438       .  A
C879       Br886   1.927       .  S
C880        C881   1.422       .  A
C880       Br885   1.930       .  S
C881        C882   1.424       .  A
C882       Br883   1.928       .  S
C887        C888   1.435       .  A
C887        C892   1.445       .  A
C887       Br894   1.934       .  S
C888        C889   1.435       .  A
C889        C890   1.447       .  A
C889       Br896   1.933       .  S
C890        C891   1.433       .  A
C890       Br895   1.933       .  S
C891        C892   1.431       .  A
C892       Br893   1.933       .  S
C897        C898   1.421       .  A
C897        C902   1.411       .  A
C897       Br904   1.933       .  S
C898       C3171   1.424       .  A
C899        C900   1.412       .  A
C899       C3170   1.424       .  A
C899       Br906   1.937       .  S
C900       C3173   1.408       .  A
C900       Br905   1.933       .  S
C901        C902   1.408       .  A
C901       C3172   1.408       .  A
C902       Br903   1.932       .  S
C907        C912   1.440       .  A
C907       C2044   1.431       .  A
C907       Br914   1.932   1_545  S
C908        C909   1.431       .  A
C908       C2043   1.431       .  A
C909        C910   1.442       .  A
C909       Br916   1.930       .  S
C910        C911   1.427       .  A
C910       Br915   1.927       .  S
C911       C2048   1.425       .  A
C911       C1448   1.565       .  S
C912       C2047   1.425       .  A
C912       Br913   1.931   1_545  S
C917        C922   1.442       .  A
C917       C2054   1.429       .  A
C917       Br924   1.930       .  S
C918        C919   1.430       .  A
C918       C2053   1.430       .  A
C919        C920   1.443       .  A
C919       Br926   1.928       .  S
C920        C921   1.425       .  A
C920       Br925   1.927       .  S
C921       C2058   1.426       .  A
C921       C1447   1.564       .  S
C922       C2057   1.426       .  A
C922       Br923   1.929       .  S
C927        C932   1.413       .  A
C927       C3200   1.428       .  A
C927       Br934   1.936   1_655  S
C928       C3199   1.428       .  A
C928       C2065   1.428       .  A
C929        C930   1.418       .  A
C929       C2064   1.429       .  A
C929       Br936   1.933       .  S
C930       C2067   1.406       .  A
C930       Br935   1.932       .  S
C931       C2066   1.406       .  A
C931       C3204   1.406       .  A
C932       C3203   1.406       .  A
C932       Br933   1.935   1_655  S
C937        C938   1.409       .  A
C937        C942   1.415       .  A
C937       Br944   1.930       .  S
C938        C939   1.409       .  A
C939        C940   1.409       .  A
C939       Br946   1.930       .  S
C940        C941   1.413       .  A
C940       Br945   1.931       .  S
C941        C942   1.420       .  A
C942       Br943   1.932       .  S
C947        C948   1.417       .  A
C947        C952   1.411       .  A
C947       Br954   1.934       .  S
C948        C949   1.417       .  A
C949        C950   1.412       .  A
C949      Br2092   1.926       .  S
C950        C951   1.408       .  A
C950       Br955   1.930       .  S
C951        C952   1.409       .  A
C952       Br953   1.928       .  S
Br956      C2085   1.926       .  S
C957        C962   1.412       .  A
C957       C3230   1.418   1_455  A
C957       Br964   1.929       .  S
C958        C959   1.418       .  A
C958       C3229   1.418       .  A
C959        C960   1.412       .  A
C959       Br966   1.931       .  S
C960        C961   1.408       .  A
C960       Br965   1.931       .  S
C961       C3234   1.408       .  A
C962       C3233   1.408   1_455  A
C962       Br963   1.932       .  S
C967        C968   1.407       .  A
C967        C972   1.403       .  A
C967       Br974   1.927       .  S
C968        C969   1.407       .  A
C969        C970   1.394       .  A
C969       Br976   1.935       .  S
C970        C971   1.409       .  A
C970       Br975   1.935       .  S
C971        C972   1.406       .  A
C972       Br973   1.926       .  S
C977        C978   1.404       .  A
C977        C982   1.402       .  A
C977       Br984   1.923       .  S
C978        C979   1.405       .  A
C979        C980   1.393       .  A
C979       Br986   1.934       .  S
C980        C981   1.409       .  A
C980       Br985   1.934       .  S
C981        C982   1.404       .  A
C982       Br983   1.924       .  S
C987        C992   1.412       .  A
C987       C3260   1.416   1_455  A
C987       Br994   1.932       .  S
C988       C3259   1.416       .  A
C988       C2125   1.417       .  A
C989        C990   1.415       .  A
C989       C2124   1.417       .  A
C989       Br996   1.925       .  S
C990        C991   1.410       .  A
C990       Br995   1.930       .  S
C991       C4400   1.410   1_545  A
C992       C4399   1.410   1_455  A
C992       Br993   1.930       .  S
C997       C1002   1.393       .  A
C997       C2134   1.405   1_545  A
C997      Br1004   1.933       .  S
C998        C999   1.407       .  A
C998       C2133   1.405       .  A
C999       C1000   1.400       .  A
C999      Br1006   1.929       .  S
C1000      C2137   1.404       .  A
C1000     Br1005   1.925       .  S
C1001      C1002   1.409   1_565  A
C1001      C2136   1.404       .  A
C1002     Br1003   1.934       .  S
C1007      C1012   1.399       .  A
C1007      C2144   1.408       .  A
C1007     Br1014   1.925       .  S
C1008      C1009   1.412       .  A
C1008      C2143   1.408       .  A
C1009      C1010   1.392       .  A
C1009     Br1016   1.935       .  S
C1010      C2147   1.403       .  A
C1010     Br1015   1.934       .  S
C1011      C1012   1.405       .  A
C1011      C2146   1.403       .  A
C1012     Br1013   1.929       .  S
C1017      C1018   1.405       .  A
C1017      C1022   1.412       .  A
C1017     Br1024   1.932       .  S
C1018      C1019   1.407       .  A
C1019      C1020   1.411       .  A
C1019     Br1026   1.935       .  S
C1020      C1021   1.422       .  A
C1020     Br1025   1.933       .  S
C1021      C1022   1.425       .  A
C1022     Br1023   1.935       .  S
C1027      C1028   1.413       .  A
C1027      C1032   1.411       .  A
C1027     Br1034   1.931       .  S
C1028      C1029   1.411       .  A
C1029      C1030   1.410       .  A
C1029     Br1036   1.929       .  S
C1030      C1031   1.411       .  A
C1030     Br1035   1.929       .  S
C1031      C1032   1.411       .  A
C1032     Br1033   1.929       .  S
C1037      C1042   1.411       .  A
C1037      C2174   1.407       .  A
C1037     Br1044   1.933       .  S
C1038      C1039   1.404       .  A
C1038      C2173   1.407   1_545  A
C1039      C1040   1.409       .  A
C1039     Br1046   1.934       .  S
C1040      C1041   1.425   1_545  A
C1040     Br1045   1.933       .  S
C1041      C2178   1.422       .  A
C1042      C2177   1.422       .  A
C1042     Br1043   1.934       .  S
C1047      C1048   1.407       .  A
C1047      C1052   1.404       .  A
C1047     Br1054   1.926       .  S
C1048      C1049   1.407       .  A
C1049      C1050   1.395       .  A
C1049     Br1056   1.935       .  S
C1050      C1051   1.411       .  A
C1050     Br1055   1.935       .  S
C1051      C1052   1.407       .  A
C1052     Br1053   1.926       .  S
C1057      C1058   1.408       .  A
C1057      C1062   1.408       .  A
C1057     Br1064   1.926       .  S
C1058      C1059   1.409       .  A
C1059      C1060   1.397       .  A
C1059     Br1066   1.935       .  S
C1060      C1061   1.409       .  A
C1060     Br1065   1.936       .  S
C1061      C1062   1.408       .  A
C1062     Br1063   1.926       .  S
C1067      C1072   1.406       .  A
C1067      C2204   1.406       .  A
C1067     Br1074   1.930       .  S
C1068      C1069   1.409       .  A
C1068      C2203   1.406       .  A
C1069      C1070   1.409       .  A
C1069     Br1076   1.931       .  S
C1070      C1071   1.415       .  A
C1070     Br1075   1.931       .  S
C1071      C2208   1.414       .  A
C1072      C2207   1.414       .  A
C1072     Br1073   1.930       .  S
C1077      C1082   1.415       .  A
C1077      C3350   1.407       .  A
C1077     Br1084   1.933       .  S
C1078      C1079   1.406       .  A
C1078      C3349   1.407       .  A
C1079      C1080   1.415       .  A
C1079     Br1086   1.933       .  S
C1080      C1081   1.428       .  A
C1080     Br1085   1.934       .  S
C1081      C3354   1.429       .  A
C1082      C3353   1.429       .  A
C1082     Br1083   1.936       .  S
C1087      C1088   1.412       .  A
C1087      C1092   1.412       .  A
C1087     Br1094   1.932       .  S
C1088      C3361   1.415       .  A
C1089      C1090   1.412       .  A
C1089      C3360   1.415       .  A
C1089     Br1096   1.933       .  S
C1090      C3363   1.413       .  A
C1090     Br1095   1.931       .  S
C1091      C1092   1.417       .  A
C1091      C3362   1.413       .  A
C1092     Br1093   1.930       .  S
C1097      C1102   1.417       .  A
C1097      C2234   1.427       .  A
C1097     Br1104   1.933       .  S
C1098      C2233   1.427       .  A
C1098      C3371   1.431       .  A
C1099      C1100   1.410       .  A
C1099      C3370   1.431       .  A
C1099     Br1106   1.935       .  S
C1100      C3373   1.401       .  A
C1100     Br1105   1.937       .  S
C1101      C3372   1.401       .  A
C1101      C2238   1.407       .  A
C1102      C2237   1.407       .  A
C1102     Br1103   1.932       .  S
C1107      C1108   1.405       .  A
C1107      C1112   1.405       .  A
C1107     Br1114   1.927       .  S
C1108      C3381   1.409       .  A
C1109      C1110   1.396       .  A
C1109      C3380   1.409       .  A
C1109     Br1116   1.934       .  S
C1110      C3383   1.408       .  A
C1110     Br1115   1.936       .  S
C1111      C1112   1.410       .  A
C1111      C3382   1.408       .  A
C1112     Br1113   1.927       .  S
C1117      C1118   1.406   1_455  A
C1117      C1122   1.395       .  A
C1117     Br1124   1.933       .  S
C1118      C3391   1.407       .  A
C1119      C1120   1.406       .  A
C1119      C3390   1.407       .  A
C1119     Br1126   1.927       .  S
C1120      C3393   1.409       .  A
C1120     Br1125   1.925       .  S
C1121      C1122   1.410   1_655  A
C1121      C3392   1.409       .  A
C1122     Br1123   1.935       .  S
C1127      C1132   1.416       .  A
C1127      C2264   1.416       .  A
C1127     Br1134   1.929       .  S
C1128      C2263   1.416       .  A
C1128      C3401   1.418   1_565  A
C1129      C1130   1.415       .  A
C1129      C3400   1.418   1_445  A
C1129     Br1136   1.931       .  S
C1130      C3403   1.413   1_545  A
C1130     Br1135   1.930       .  S
C1131      C3402   1.413   1_565  A
C1131      C2268   1.414       .  A
C1132      C2267   1.414       .  A
C1132     Br1133   1.930       .  S
N1137      C1142   1.351   1_455  A
N1137      C1141   1.357       .  A
N1137      H1169   1.040   1_455  S
N1138      C1145   1.353       .  A
N1138      C1146   1.348       .  A
N1139      C1144   1.357       .  A
N1139      C1143   1.348       .  A
N1139      H1170   1.039       .  S
N1140      C1147   1.346       .  A
N1140      C1148   1.353       .  A
C1141      C1149   1.383       .  A
C1141      C1157   1.412       .  A
C1142      C1158   1.419       .  A
C1142      C1150   1.391   1_655  A
C1143      C1151   1.386       .  A
C1143      C3432   1.411       .  A
C1144      C1152   1.387       .  A
C1145      C1153   1.383       .  A
C1146      C1160   1.412       .  A
C1146      C1154   1.389       .  A
C1147      C1155   1.388       .  A
C1147      C3430   1.411       .  A
C1148      C1156   1.385       .  A
C1148      C1159   1.419       .  A
C1149      C1150   1.375       .  A
C1149      H1161   1.082       .  S
C1150      H1162   1.082       .  S
C1151      C1152   1.379       .  A
C1151      H1163   1.082       .  S
C1152      H1164   1.082       .  S
C1153      C1154   1.371       .  A
C1153      H1165   1.082       .  S
C1154      H1166   1.082       .  S
C1155      C1156   1.378       .  A
C1155      H1167   1.083       .  S
C1156      H1168   1.082       .  S
C1157      C2237   1.497       .  S
C1158      C3419   1.411       .  A
C1158      C2257   1.476       .  S
C1159      C2267   1.511       .  S
C1160      C3415   1.411       .  A
C1160      C2247   1.474       .  S
N1171      C1176   1.358       .  A
N1171      C1175   1.350       .  A
N1171      H1203   1.040       .  S
N1172      C1179   1.342       .  A
N1172      C1180   1.351       .  A
N1173      C1178   1.345       .  A
N1173      C1177   1.357       .  A
N1173      H1204   1.040       .  S
N1174      C1181   1.355       .  A
N1174      C1182   1.349       .  A
C1175      C1183   1.391       .  A
C1175      C1191   1.419       .  A
C1176      C1192   1.414       .  A
C1176      C1184   1.383       .  A
C1177      C1185   1.387       .  A
C1177      C1194   1.419       .  A
C1178      C3465   1.408       .  A
C1178      C1186   1.386       .  A
C1179      C3463   1.406       .  A
C1179      C1187   1.387       .  A
C1180      C1194   1.414       .  A
C1180      C1188   1.385       .  A
C1181      C1189   1.383       .  A
C1181      C1192   1.411       .  A
C1182      C1190   1.389       .  A
C1182      C1193   1.415       .  A
C1183      C1184   1.377       .  A
C1183      H1195   1.082       .  S
C1184      H1196   1.082       .  S
C1185      C1186   1.378       .  A
C1185      H1197   1.082       .  S
C1186      H1198   1.082       .  S
C1187      C1188   1.377       .  A
C1187      H1199   1.082       .  S
C1188      H1200   1.082       .  S
C1189      C1190   1.372       .  A
C1189      H1201   1.082       .  S
C1190      H1202   1.082       .  S
C1191      C3451   1.406       .  A
C1191      C2244   1.473       .  S
C1192      C2214   1.502       .  S
C1193      C3450   1.408       .  A
C1193      C2254   1.472   1_455  S
C1194      C2227   1.507       .  S
N1205      C1210   1.354       .  A
N1205      C1209   1.351       .  A
N1205      H1237   1.040       .  S
N1206      C1213   1.342       .  A
N1206      C1214   1.348       .  A
N1207      C1212   1.345       .  A
N1207      C1211   1.354       .  A
N1207      H1238   1.039       .  S
N1208      C1215   1.353       .  A
N1208      C1216   1.351       .  A
C1209      C1217   1.390       .  A
C1209      C1225   1.415       .  A
C1210      C1218   1.385       .  A
C1211      C1219   1.388       .  A
C1212      C1227   1.406       .  A
C1212      C1220   1.386       .  A
C1213      C1225   1.403       .  A
C1213      C1221   1.386       .  A
C1214      C1228   1.413   1_565  A
C1214      C1222   1.387       .  A
C1215      C1223   1.384       .  A
C1215      C1226   1.411       .  A
C1216      C1224   1.387       .  A
C1216      C1227   1.414       .  A
C1217      C1218   1.371       .  A
C1217      H1229   1.082       .  S
C1218      H1230   1.082       .  S
C1219      C1220   1.379       .  A
C1219      H1231   1.082       .  S
C1220      H1232   1.082       .  S
C1221      C1222   1.378       .  A
C1221      H1233   1.082       .  S
C1222      H1234   1.082       .  S
C1223      C1224   1.374       .  A
C1223      H1235   1.082       .  S
C1224      H1236   1.082       .  S
C1225      C2187   1.473       .  S
C1226      C2174   1.491       .  S
C1227      C2194   1.477       .  S
C1228      C2207   1.496       .  S
N1239      C1244   1.354       .  A
N1239      C1243   1.350       .  A
N1239      H1271   1.039       .  S
N1240      C1247   1.344       .  A
N1240      C1248   1.349       .  A
N1241      C1246   1.346       .  A
N1241      C1245   1.356       .  A
N1241      H1272   1.037       .  S
N1242      C1249   1.354       .  A
N1242      C1250   1.351       .  A
C1243      C1251   1.390       .  A
C1243      C1259   1.416       .  A
C1244      C1260   1.411       .  A
C1244      C1252   1.384       .  A
C1245      C1253   1.387       .  A
C1245      C1262   1.419       .  A
C1246      C1261   1.410       .  A
C1246      C1254   1.386       .  A
C1247      C1259   1.406       .  A
C1247      C1255   1.387       .  A
C1248      C1262   1.412       .  A
C1248      C1256   1.386       .  A
C1249      C1257   1.385       .  A
C1249      C1260   1.412       .  A
C1250      C1258   1.388       .  A
C1250      C1261   1.414       .  A
C1251      C1252   1.376       .  A
C1251      H1263   1.082       .  S
C1252      H1264   1.082       .  S
C1253      C1254   1.380       .  A
C1253      H1265   1.082       .  S
C1254      H1266   1.082       .  S
C1255      C1256   1.374       .  A
C1255      H1267   1.082       .  S
C1256      H1268   1.082       .  S
C1257      C1258   1.369       .  A
C1257      H1269   1.082       .  S
C1258      H1270   1.082       .  S
C1259      C2184   1.472       .  S
C1260      C2154   1.494       .  S
C1261      C2197   1.477       .  S
C1262      C2164   1.498       .  S
N1273      C1278   1.341       .  A
N1273      C1277   1.354       .  A
N1273      H1305   1.041       .  S
N1274      C1281   1.354       .  A
N1274      C1282   1.342       .  A
N1275      C1280   1.361       .  A
N1275      C1279   1.349       .  A
N1275      H1306   1.042       .  S
N1276      C1283   1.346       .  A
N1276      C1284   1.354       .  A
C1277      C1285   1.384       .  A
C1277      C3565   1.407   1_455  A
C1278      C1294   1.403       .  A
C1278      C1286   1.389       .  A
C1279      C1287   1.391       .  A
C1279      C1296   1.418       .  A
C1280      C1295   1.418       .  A
C1280      C1288   1.384       .  A
C1281      C1293   1.411       .  A
C1281      C1289   1.381       .  A
C1282      C1296   1.412       .  A
C1282      C1290   1.392       .  A
C1283      C1291   1.389       .  A
C1283      C1294   1.412       .  A
C1284      C1292   1.384       .  A
C1284      C3567   1.413   1_455  A
C1285      C1286   1.374       .  A
C1285      H1297   1.082       .  S
C1286      H1298   1.082       .  S
C1287      C1288   1.378       .  A
C1287      H1299   1.082       .  S
C1288      H1300   1.082       .  S
C1289      C1290   1.377       .  A
C1289      H1301   1.082       .  S
C1290      H1302   1.082       .  S
C1291      C1292   1.376       .  A
C1291      H1303   1.083       .  S
C1292      H1304   1.082       .  S
C1293      C3549   1.407       .  A
C1293      C2127   1.501       .  S
C1294      C2147   1.462       .  S
C1295      C3556   1.413       .  A
C1295      C2264   1.516       .  S
C1296      C2137   1.467       .  S
N1307      C1312   1.342       .  A
N1307      C1311   1.352       .  A
N1307      H1339   1.040       .  S
N1308      C1315   1.352       .  A
N1308      C1316   1.342       .  A
N1309      C1314   1.358       .  A
N1309      C1313   1.349       .  A
N1309      H1340   1.041       .  S
N1310      C1317   1.347       .  A
N1310      C1318   1.352       .  A
C1311      C1319   1.386       .  A
C1311      C3599   1.410   1_455  A
C1312      C1328   1.402       .  A
C1312      C1320   1.387       .  A
C1313      C1321   1.391       .  A
C1313      C1330   1.417       .  A
C1314      C1329   1.415       .  A
C1314      C1322   1.384       .  A
C1315      C1327   1.410       .  A
C1315      C1323   1.382       .  A
C1316      C1330   1.410       .  A
C1316      C1324   1.390       .  A
C1317      C1325   1.388       .  A
C1317      C1328   1.410       .  A
C1318      C1326   1.384       .  A
C1318      C3601   1.408       .  A
C1319      C1320   1.376       .  A
C1319      H1331   1.082       .  S
C1320      H1332   1.082       .  S
C1321      C1322   1.378       .  A
C1321      H1333   1.082       .  S
C1322      H1334   1.082       .  S
C1323      C1324   1.376       .  A
C1323      H1335   1.082       .  S
C1324      H1336   1.082       .  S
C1325      C1326   1.372       .  A
C1325      H1337   1.081       .  S
C1326      H1338   1.082       .  S
C1327      C3583   1.410       .  A
C1327      C2097   1.495       .  S
C1328      C2114   1.464       .  S
C1329      C3590   1.408       .  A
C1329      C2224   1.504       .  S
C1330      C2104   1.469       .  S
N1341      C1346   1.356       .  A
N1341      C1345   1.345       .  A
N1341      H1373   1.036       .  S
N1342      C1349   1.346       .  A
N1342      C1350   1.353       .  A
N1343      C1348   1.346       .  A
N1343      C1347   1.355       .  A
N1343      H1374   1.040       .  S
N1344      C1351   1.350       .  A
N1344      C1352   1.342       .  A
C1345      C1353   1.388       .  A
C1345      C1361   1.412       .  A
C1346      C1362   1.419       .  A
C1346      C1354   1.386       .  A
C1347      C1355   1.382       .  A
C1347      C1364   1.405       .  A
C1348      C1363   1.414       .  A
C1348      C1356   1.392       .  A
C1349      C1361   1.413       .  A
C1349      C1357   1.392       .  A
C1350      C1364   1.401       .  A
C1350      C1358   1.380       .  A
C1351      C1359   1.385       .  A
C1351      C1362   1.412       .  A
C1352      C1360   1.388   1_545  A
C1352      C1363   1.407       .  A
C1353      C1354   1.381       .  A
C1353      H1365   1.083       .  S
C1354      H1366   1.082       .  S
C1355      C1356   1.372       .  A
C1355      H1367   1.082       .  S
C1356      H1368   1.082       .  S
C1357      C1358   1.365       .  A
C1357      H1369   1.081       .  S
C1358      H1370   1.082       .  S
C1359      C1360   1.377   1_545  A
C1359      H1371   1.082   1_545  S
C1360      H1372   1.082       .  S
C1361      C2144   1.468       .  S
C1362      C2087   1.497       .  S
C1363      C2134   1.464   1_545  S
C1364      C2204   1.488       .  S
N1375      C1380   1.354       .  A
N1375      C1379   1.344       .  A
N1375      H1407   1.028       .  S
N1376      C1383   1.348       .  A
N1376      C1384   1.354       .  A
N1377      C1382   1.351       .  A
N1377      C1381   1.359       .  A
N1377      H1408   1.032       .  S
N1378      C1385   1.352       .  A
N1378      C1386   1.342       .  A
C1379      C1387   1.386       .  A
C1379      C1395   1.403       .  A
C1380      C1396   1.414       .  A
C1380      C1388   1.387       .  A
C1381      C1389   1.383       .  A
C1381      C1398   1.415       .  A
C1382      C1397   1.419       .  A
C1382      C1390   1.390       .  A
C1383      C1395   1.415       .  A
C1383      C1391   1.389       .  A
C1384      C1398   1.408       .  A
C1384      C1392   1.383       .  A
C1385      C1393   1.383       .  A
C1385      C1396   1.412       .  A
C1386      C1394   1.390       .  A
C1386      C1397   1.410       .  A
C1387      C1388   1.375       .  A
C1387      H1399   1.082       .  S
C1388      H1400   1.082       .  S
C1389      C1390   1.374       .  A
C1389      H1401   1.082       .  S
C1390      H1402   1.082       .  S
C1391      C1392   1.368       .  A
C1391      H1403   1.081       .  S
C1392      H1404   1.082       .  S
C1393      C1394   1.378       .  A
C1393      H1405   1.082       .  S
C1394      H1406   1.082       .  S
C1395      C2117   1.467       .  S
C1396      C2074   1.496       .  S
C1397      C2107   1.470       .  S
C1398      C2167   1.498       .  S
O1409     Cu1417   2.016       .  S
O1409      C1419   1.277       .  A
O1410     Cu1417   2.019       .  S
O1410      C1420   1.277       .  A
O1411     Cu1417   2.100       .  S
O1411      C1421   1.288       .  A
O1412     Cu3689   2.117   1_455  S
O1412      C1422   1.291       .  A
O1413     Cu3690   2.107   1_455  S
O1414     Cu1418   2.112       .  S
O1415     Cu1418   2.040       .  S
O1416     Cu1418   2.048       .  S
Cu1417     O3684   2.117       .  S
Cu1418     O3685   2.107       .  S
C1419      C2124   1.500       .  S
C1420      C2064   1.517       .  S
C1421      C2044   1.569       .  S
C1422      C2054   1.569       .  S
O1423     Cu1431   2.032       .  S
O1423      C1433   1.280       .  A
O1424     Cu1431   2.021       .  S
O1424      C1434   1.279       .  A
O1425     Cu1431   2.101       .  S
O1425      C1435   1.288       .  A
O1426     Cu3703   2.117   1_455  S
O1426      C1436   1.290       .  A
O1427     Cu3704   2.111   1_455  S
O1427      C1436   1.290       .  A
O1428     Cu1432   2.111       .  S
O1428      C1435   1.290       .  A
O1429     Cu1432   2.007       .  S
O1429      C1434   1.276       .  A
O1430     Cu1432   2.021       .  S
O1430      C1433   1.278       .  A
Cu1431     O3698   2.117       .  S
Cu1431    Cu1432   2.348       .  S
Cu1432     O3699   2.111       .  S
C1433      C2094   1.496       .  S
C1434      C2034   1.500       .  S
C1435      C2014   1.554       .  S
C1436      C2027   1.579       .  S
O1437     Cu1445   2.108       .  S
O1437      C1447   1.289       .  A
O1438     Cu1445   2.117       .  S
O1438      C1448   1.291       .  A
O1439     Cu1445   2.030       .  S
O1440     Cu1445   2.038       .  S
O1440      C1450   1.280       .  A
O1441     Cu1446   2.018       .  S
O1442     Cu1446   2.011       .  S
O1442      C1449   1.278       .  A
O1443     Cu1446   2.101       .  S
O1444     Cu1446   2.117       .  S
C1449      C2084   1.496       .  S
C1450      C2004   1.510       .  S
O1451     Cu1459   2.016       .  S
O1451      C1461   1.277       .  A
O1452     Cu1459   2.019       .  S
O1452      C1462   1.277       .  A
O1453     Cu1459   2.099       .  S
O1453      C1463   1.289       .  A
O1454     Cu1459   2.124       .  S
O1454      C1464   1.291       .  A
O1455     Cu1460   2.105       .  S
O1455      C1464   1.288       .  A
O1456     Cu1460   2.099       .  S
O1456      C1463   1.288       .  A
O1457     Cu1460   2.021       .  S
O1457      C1462   1.279       .  A
O1458     Cu1460   2.027       .  S
O1458      C1461   1.278       .  A
Cu1459    Cu1460   2.346       .  S
C1461      C1994   1.511       .  S
C1462      C2077   1.491       .  S
C1463      C2017   1.550       .  S
C1464      C2024   1.582       .  S
O1465     Cu1473   2.098       .  S
O1465      C1475   1.288       .  A
O1466      C1476   1.287       .  A
O1467     Cu1473   2.052   1_556  S
O1467      C1477   1.283       .  A
O1468     Cu1473   2.051       .  S
O1468      C1478   1.282       .  A
O1469     Cu1474   2.005       .  S
O1469      C3750   1.274       .  A
O1470     Cu1474   2.013   1_556  S
O1470      C3749   1.277       .  A
O1471      C3748   1.291       .  A
O1472     Cu1474   2.100       .  S
O1472      C3747   1.289       .  A
Cu1473    Cu3746   2.349       .  S
Cu1474    Cu3745   2.349       .  S
C1475      C1977   1.554       .  S
C1475      O3744   1.289       .  A
C1476      C1964   1.556       .  S
C1476      O3743   1.291       .  A
C1477      O3742   1.277       .  A
C1478      C2234   1.515       .  S
C1478      O3741   1.274       .  A
O1479     Cu1487   2.099       .  S
O1479      C3761   1.288       .  A
O1480     Cu1487   2.087       .  S
O1480      C3762   1.286       .  A
O1481     Cu1487   2.023       .  S
O1481      C3763   1.277       .  A
O1482     Cu1487   2.016   1_556  S
O1482      C3764   1.279       .  A
O1483     Cu1488   2.030   1_556  S
O1483      C1492   1.279       .  A
O1484     Cu1488   2.032       .  S
O1484      C1491   1.279       .  A
O1485     Cu1488   2.108       .  S
O1485      C1490   1.290       .  A
O1486     Cu1488   2.099       .  S
O1486      C1489   1.289       .  A
Cu1487    Cu3760   2.349       .  S
Cu1488    Cu3759   2.349       .  S
C1489      C1967   1.555       .  S
C1489      O3751   1.288       .  A
C1490      C1974   1.553       .  S
C1490      O3752   1.286       .  A
C1491      C2217   1.518       .  S
C1491      O3753   1.277       .  A
C1492      C1954   1.494       .  S
C1492      O3754   1.279       .  A
O1493     Cu1501   2.023       .  S
O1493      C1503   1.279       .  A
O1494     Cu1501   2.032   1_556  S
O1494      C1504   1.280       .  A
O1495      C1505   1.287       .  A
O1496     Cu1501   2.096       .  S
O1496      C1506   1.287       .  A
O1497     Cu1502   2.103       .  S
O1497      C1506   1.289       .  A
O1498      C1505   1.288       .  A
O1499     Cu1502   2.016   1_556  S
O1499      C1504   1.277       .  A
O1500     Cu1502   2.010       .  S
O1500      C1503   1.276       .  A
Cu1501    Cu1502   2.347       .  S
C1503      C2177   1.502       .  S
C1504      C1947   1.503       .  S
C1505      C1927   1.551       .  S
C1506      C1934   1.564       .  S
O1507     Cu1515   2.093       .  S
O1507      C1517   1.287       .  A
O1508     Cu1515   2.096       .  S
O1508      C1518   1.288       .  A
O1509     Cu1515   2.019   1_556  S
O1509      C1519   1.278       .  A
O1510     Cu1515   2.023       .  S
O1510      C1520   1.278       .  A
O1511     Cu1516   2.017       .  S
O1511      C1520   1.278       .  A
O1512     Cu1516   2.025   1_556  S
O1512      C1519   1.278       .  A
O1513     Cu1516   2.098       .  S
O1513      C1518   1.288       .  A
O1514     Cu1516   2.091       .  S
O1514      C1517   1.288       .  A
Cu1515    Cu1516   2.346       .  S
C1517      C1924   1.549       .  S
C1518      C1937   1.561       .  S
C1519      C1914   1.508       .  S
C1520      C2157   1.504       .  S
N1521      C1526   1.345       .  A
N1521      C1525   1.359       .  A
N1521      H1553   1.039       .  S
N1522      C1529   1.350       .  A
N1522      C1530   1.342   1_455  A
N1523      C3800   1.358   1_655  A
N1523      C1527   1.350       .  A
N1523      H1554   1.040       .  S
N1524      C1531   1.349       .  A
N1524      C3804   1.355       .  A
C1525      C1533   1.384       .  A
C1525      C1541   1.418       .  A
C1526      C1542   1.413       .  A
C1526      C1534   1.388       .  A
C1527      C3807   1.391       .  A
C1527      C1544   1.419       .  A
C1528      N3795   1.358       .  A
C1528      C1536   1.383       .  A
C1529      C1537   1.385   1_455  A
C1530      C1544   1.406       .  A
C1530      C1538   1.388       .  A
C1531      C3811   1.388       .  A
C1531      C1542   1.414       .  A
C1532      N3796   1.355       .  A
C1532      C1540   1.384       .  A
C1532      C1543   1.413   1_565  A
C1533      C1534   1.379       .  A
C1533      H1545   1.082       .  S
C1534      H1546   1.081       .  S
C1535      C3799   1.391       .  A
C1535      C1536   1.375       .  A
C1535      H1547   1.081       .  S
C1536      H1548   1.082       .  S
C1537      C1538   1.373       .  A
C1537      H1549   1.082       .  S
C1538      H1550   1.082       .  S
C1539      C3803   1.388       .  A
C1539      C1540   1.377       .  A
C1539      H1551   1.082       .  S
C1540      H1552   1.082       .  S
C1541      C1984   1.505       .  S
C1542      C1884   1.473       .  S
C1543      C1907   1.508       .  S
C1544      C1897   1.470       .  S
N1555      C1560   1.359       .  A
N1555      C1559   1.346       .  A
N1555      H1587   1.030       .  S
N1556      C1563   1.350       .  A
N1556      C3836   1.354       .  A
N1557      C1562   1.351       .  A
N1557      C3833   1.358       .  A
N1557      H1588   1.038       .  S
N1558      C1565   1.349       .  A
N1558      C1566   1.342   1_455  A
C1559      C1567   1.386       .  A
C1559      C1575   1.414       .  A
C1560      C1576   1.423       .  A
C1560      C1568   1.386       .  A
C1561      N3829   1.358       .  A
C1561      C1569   1.382       .  A
C1561      C1578   1.411       .  A
C1562      C1577   1.420       .  A
C1562      C3842   1.391       .  A
C1563      C1575   1.418       .  A
C1563      C3843   1.390       .  A
C1564      N3828   1.354       .  A
C1564      C1578   1.409       .  A
C1564      C1572   1.382       .  A
C1565      C1573   1.386   1_455  A
C1565      C1576   1.413       .  A
C1566      C1574   1.388       .  A
C1566      C1577   1.406       .  A
C1567      C1568   1.382       .  A
C1567      H1579   1.082       .  S
C1568      H1580   1.082       .  S
C1569      C1570   1.371       .  A
C1569      H1581   1.082       .  S
C1570      C3834   1.391       .  A
C1570      H1582   1.081       .  S
C1571      C3835   1.390       .  A
C1571      C1572   1.372       .  A
C1571      H1583   1.082       .  S
C1572      H1584   1.082       .  S
C1573      C1574   1.374       .  A
C1573      H1585   1.082       .  S
C1574      H1586   1.083       .  S
C1575      C1887   1.477       .  S
C1576      C1957   1.501       .  S
C1577      C1894   1.472       .  S
C1578      C1874   1.497       .  S
N1589      C1594   1.356       .  A
N1589      C1593   1.351       .  A
N1589      H1621   1.039       .  S
N1590      C1597   1.345       .  A
N1590      C1598   1.351       .  A
N1591      C1596   1.344       .  A
N1591      C1595   1.353       .  A
N1591      H1622   1.038       .  S
N1592      C1599   1.353       .  A
N1592      C1600   1.350       .  A
C1593      C1601   1.390       .  A
C1593      C1609   1.418       .  A
C1594      C1610   1.414       .  A
C1594      C1602   1.385       .  A
C1595      C1603   1.389       .  A
C1596      C1611   1.405       .  A
C1596      C1604   1.385       .  A
C1597      C1609   1.408       .  A
C1597      C1605   1.386       .  A
C1598      C1612   1.417       .  A
C1598      C1606   1.387       .  A
C1599      C1607   1.384       .  A
C1600      C1608   1.388       .  A
C1600      C1611   1.412       .  A
C1601      C1602   1.371       .  A
C1601      H1613   1.082       .  S
C1602      H1614   1.082       .  S
C1603      C1604   1.379       .  A
C1603      H1615   1.082       .  S
C1604      H1616   1.082       .  S
C1605      C1606   1.376       .  A
C1605      H1617   1.082       .  S
C1606      H1618   1.082       .  S
C1607      C1608   1.372       .  A
C1607      H1619   1.082       .  S
C1608      H1620   1.082       .  S
C1609      C1854   1.475       .  S
C1610      C1944   1.495       .  S
C1611      C1844   1.474       .  S
C1612      C1864   1.499       .  S
N1623      C1628   1.351       .  A
N1623      C1627   1.354       .  A
N1623      H1655   1.040       .  S
N1624      C1631   1.355       .  A
N1624      C1632   1.351       .  A
N1625      C1630   1.355       .  A
N1625      C1629   1.345       .  A
N1625      H1656   1.036       .  S
N1626      C1633   1.341       .  A
N1626      C1634   1.347       .  A
C1627      C1635   1.385       .  A
C1627      C1643   1.411       .  A
C1628      C1644   1.416       .  A
C1628      C1636   1.389       .  A
C1629      C1637   1.388       .  A
C1629      C1646   1.409       .  A
C1630      C1645   1.415       .  A
C1630      C1638   1.386       .  A
C1631      C1643   1.412       .  A
C1631      C1639   1.383       .  A
C1632      C1646   1.417       .  A
C1632      C1640   1.388       .  A
C1633      C1641   1.387       .  A
C1633      C1644   1.403       .  A
C1634      C1642   1.385       .  A
C1634      C1645   1.408       .  A
C1635      C1636   1.374       .  A
C1635      H1647   1.082       .  S
C1636      H1648   1.082       .  S
C1637      C1638   1.377       .  A
C1637      H1649   1.082       .  S
C1638      H1650   1.082       .  S
C1639      C1640   1.375       .  A
C1639      H1651   1.082       .  S
C1640      H1652   1.083       .  S
C1641      C1642   1.375       .  A
C1641      H1653   1.083       .  S
C1642      H1654   1.082       .  S
C1643      C1917   1.497       .  S
C1644      C1847   1.473       .  S
C1645      C1834   1.490       .  S
C1646      C1857   1.474       .  S
N1657      C1662   1.358       .  A
N1657      C1661   1.352       .  A
N1657      H1689   1.042   1_455  S
N1658      C1665   1.343       .  A
N1658      C1666   1.350       .  A
N1659      C1664   1.346       .  A
N1659      C1663   1.358       .  A
N1659      H1690   1.041       .  S
N1660      C1667   1.355       .  A
N1660      C1668   1.350       .  A
C1661      C1669   1.389       .  A
C1661      C1677   1.418       .  A
C1662      C3950   1.415   1_455  A
C1662      C1670   1.385       .  A
C1663      C1671   1.387   1_545  A
C1663      C1680   1.422       .  A
C1664      C1679   1.410       .  A
C1664      C1672   1.386   1_545  A
C1665      C1677   1.405       .  A
C1665      C1673   1.387       .  A
C1666      C3952   1.416   1_455  A
C1666      C1674   1.385       .  A
C1667      C1675   1.383       .  A
C1667      C1678   1.411       .  A
C1668      C1676   1.389       .  A
C1668      C1679   1.415       .  A
C1669      C1670   1.374       .  A
C1669      H1681   1.083       .  S
C1670      H1682   1.082       .  S
C1671      C1672   1.380       .  A
C1671      H1683   1.082       .  S
C1672      H1684   1.082       .  S
C1673      C1674   1.377       .  A
C1673      H1685   1.081       .  S
C1674      H1686   1.082       .  S
C1675      C1676   1.372       .  A
C1675      H1687   1.082       .  S
C1676      H1688   1.082       .  S
C1677      C1824   1.479       .  S
C1678      C3934   1.415       .  A
C1678      C2067   1.502       .  S
C1679      C1814   1.475   1_545  S
C1680      C3938   1.416       .  A
C1680      C1904   1.510       .  S
N1691      C1696   1.350       .  A
N1691      C1695   1.355       .  A
N1691      H1723   1.041       .  S
N1692      C1699   1.354       .  A
N1692      C1700   1.348       .  A
N1693      C1698   1.355       .  A
N1693      C1697   1.342       .  A
N1693      H1724   1.039       .  S
N1694      C1701   1.340       .  A
N1694      C1702   1.349       .  A
C1695      C1703   1.385       .  A
C1695      C3983   1.412   1_455  A
C1696      C1712   1.414       .  A
C1696      C1704   1.389       .  A
C1697      C1705   1.388       .  A
C1697      C1714   1.406       .  A
C1698      C1713   1.416       .  A
C1698      C1706   1.386       .  A
C1699      C1711   1.409       .  A
C1699      C1707   1.383       .  A
C1700      C1714   1.415       .  A
C1700      C1708   1.390       .  A
C1701      C1709   1.388       .  A
C1701      C1712   1.403       .  A
C1702      C1710   1.385       .  A
C1702      C3985   1.412   1_455  A
C1703      C1704   1.375       .  A
C1703      H1715   1.082       .  S
C1704      H1716   1.082       .  S
C1705      C1706   1.380       .  A
C1705      H1717   1.082       .  S
C1706      H1718   1.082       .  S
C1707      C1708   1.374       .  A
C1707      H1719   1.082       .  S
C1708      H1720   1.082       .  S
C1709      C1710   1.377       .  A
C1709      H1721   1.082       .  S
C1710      H1722   1.082       .  S
C1711      C3967   1.412       .  A
C1711      C2037   1.495       .  S
C1712      C1804   1.468       .  S
C1713      C3974   1.412       .  A
C1713      C1877   1.499       .  S
C1714      C1794   1.468       .  S
N1725      C1730   1.355       .  A
N1725      C1729   1.349       .  A
N1725      H1757   1.036       .  S
N1726      C1733   1.349       .  A
N1726      C1734   1.353       .  A
N1727      C1732   1.351       .  A
N1727      C1731   1.356       .  A
N1727      H1758   1.038       .  S
N1728      C1735   1.353       .  A
N1728      C1736   1.348       .  A
C1729      C1737   1.389       .  A
C1729      C1745   1.416       .  A
C1730      C1746   1.415       .  A
C1730      C1738   1.385       .  A
C1731      C1739   1.385       .  A
C1731      C1748   1.414       .  A
C1732      C1747   1.417       .  A
C1732      C1740   1.390       .  A
C1733      C1745   1.415       .  A
C1733      C1741   1.389       .  A
C1734      C1748   1.413       .  A
C1734      C1742   1.385       .  A
C1735      C1743   1.384       .  A
C1735      C1746   1.414       .  A
C1736      C1744   1.388       .  A
C1736      C1747   1.414       .  A
C1737      C1738   1.375       .  A
C1737      H1749   1.082       .  S
C1738      H1750   1.082       .  S
C1739      C1740   1.370       .  A
C1739      H1751   1.082       .  S
C1740      H1752   1.082       .  S
C1741      C1742   1.371       .  A
C1741      H1753   1.082       .  S
C1742      H1754   1.082       .  S
C1743      C1744   1.373       .  A
C1743      H1755   1.082       .  S
C1744      H1756   1.082       .  S
C1745      C1827   1.478       .  S
C1746      C2007   1.498       .  S
C1747      C1817   1.479       .  S
C1748      C1867   1.498       .  S
N1759      C1764   1.355       .  A
N1759      C1763   1.349       .  A
N1759      H1791   1.040       .  S
N1760      C1767   1.340       .  A
N1760      C1768   1.348       .  A
N1761      C1766   1.344       .  A
N1761      C1765   1.355       .  A
N1761      H1792   1.040       .  S
N1762      C1769   1.354       .  A
N1762      C1770   1.347       .  A
C1763      C1771   1.391       .  A
C1763      C1779   1.415       .  A
C1764      C1780   1.409       .  A
C1764      C1772   1.383       .  A
C1765      C1773   1.385       .  A
C1765      C1782   1.412       .  A
C1766      C1781   1.406       .  A
C1766      C1774   1.387       .  A
C1767      C1779   1.403       .  A
C1767      C1775   1.388       .  A
C1768      C1782   1.407       .  A
C1768      C1776   1.385       .  A
C1769      C1777   1.383       .  A
C1769      C1780   1.409       .  A
C1770      C1778   1.390       .  A
C1770      C1781   1.413       .  A
C1771      C1772   1.376       .  A
C1771      H1783   1.082       .  S
C1772      H1784   1.082       .  S
C1773      C1774   1.378       .  A
C1773      H1785   1.082       .  S
C1774      H1786   1.082       .  S
C1775      C1776   1.374       .  A
C1775      H1787   1.082       .  S
C1776      H1788   1.082       .  S
C1777      C1778   1.373       .  A
C1777      H1789   1.082       .  S
C1778      H1790   1.082       .  S
C1779      C1807   1.466       .  S
C1780      C1997   1.496       .  S
C1781      C1797   1.468       .  S
C1782      C1837   1.492       .  S
C1793      C1794   1.405       .  A
C1793      C1798   1.402       .  A
C1793     Br1800   1.926       .  S
C1794      C1795   1.410       .  A
C1795      C1796   1.394       .  A
C1795     Br1802   1.934       .  S
C1796      C1797   1.408       .  A
C1796     Br1801   1.937       .  S
C1797      C1798   1.407       .  A
C1798     Br1799   1.926       .  S
C1803      C1804   1.409       .  A
C1803      C1808   1.394       .  A
C1803     Br1810   1.932       .  S
C1804      C1805   1.405       .  A
C1805      C1806   1.400       .  A
C1805     Br1812   1.925       .  S
C1806      C1807   1.404       .  A
C1806     Br1811   1.927       .  S
C1807      C1808   1.407       .  A
C1808     Br1809   1.934       .  S
C1813      C1818   1.396       .  A
C1813     Br1820   1.934       .  S
C1814      C1815   1.408       .  A
C1815      C1816   1.406       .  A
C1815     Br1822   1.926       .  S
C1816     Br1821   1.927       .  S
C1817      C1818   1.410       .  A
C1818     Br1819   1.935       .  S
C1823      C1828   1.406       .  A
C1823     Br1830   1.922       .  S
C1824      C1825   1.413       .  A
C1825      C1826   1.396       .  A
C1825     Br1832   1.935       .  S
C1826     Br1831   1.932   1_545  S
C1827      C1828   1.410       .  A
C1828     Br1829   1.928       .  S
C1833      C1834   1.408       .  A
C1833      C1838   1.408       .  A
C1833     Br1840   1.929       .  S
C1834      C1835   1.410       .  A
C1835      C1836   1.409       .  A
C1835     Br1842   1.929       .  S
C1836      C1837   1.410       .  A
C1836     Br1841   1.929       .  S
C1837      C1838   1.412       .  A
C1838     Br1839   1.929       .  S
C1843      C1844   1.411       .  A
C1843      C1848   1.396       .  A
C1843     Br1850   1.935       .  S
C1844      C1845   1.407       .  A
C1845      C1846   1.404       .  A
C1845     Br1852   1.924       .  S
C1846      C1847   1.405       .  A
C1846     Br1851   1.926       .  S
C1847      C1848   1.408       .  A
C1848     Br1849   1.936       .  S
C1853      C1854   1.408       .  A
C1853      C1858   1.394       .  A
C1853     Br1860   1.935       .  S
C1854      C1855   1.408       .  A
C1855      C1856   1.407       .  A
C1855     Br1862   1.926       .  S
C1856      C1857   1.407       .  A
C1856     Br1861   1.925       .  S
C1857      C1858   1.409       .  A
C1858     Br1859   1.936       .  S
C1863      C1864   1.412       .  A
C1863      C1868   1.406       .  A
C1863     Br1870   1.931       .  S
C1865      C1866   1.410       .  A
C1865     Br1872   1.930       .  S
C1866     Br1871   1.930       .  S
C1867      C1868   1.411       .  A
C1868     Br1869   1.931       .  S
C1873      C1874   1.409       .  A
C1873      C1878   1.410       .  A
C1873     Br1880   1.928       .  S
C1874      C4147   1.410       .  A
C1875      C4146   1.410       .  A
C1875      C1876   1.410       .  A
C1875     Br1882   1.928       .  S
C1876      C4149   1.412       .  A
C1876     Br1881   1.928       .  S
C1877      C4148   1.412       .  A
C1877      C1878   1.413       .  A
C1878     Br1879   1.926       .  S
C1883      C1884   1.407       .  A
C1883      C1888   1.407       .  A
C1883     Br1890   1.927       .  S
C1884      C4157   1.406       .  A
C1885      C4156   1.406       .  A
C1885      C1886   1.395       .  A
C1885     Br1892   1.935       .  S
C1886      C4159   1.410       .  A
C1886     Br1891   1.935       .  S
C1887      C4158   1.410       .  A
C1887      C1888   1.410       .  A
C1888     Br1889   1.926       .  S
C1893      C1894   1.411   1_455  A
C1893      C1898   1.394       .  A
C1893     Br1900   1.936       .  S
C1894      C4167   1.406       .  A
C1895      C4166   1.406       .  A
C1895      C1896   1.402       .  A
C1895     Br1902   1.925       .  S
C1896      C4169   1.406       .  A
C1896     Br1901   1.926       .  S
C1897      C4168   1.406       .  A
C1897      C1898   1.406   1_655  A
C1898     Br1899   1.933       .  S
C1903      C1908   1.413       .  A
C1903     Br1910   1.931       .  S
C1904      C4177   1.417       .  A
C1905      C4176   1.417   1_455  A
C1905      C1906   1.413       .  A
C1905     Br1912   1.933       .  S
C1906      C4179   1.413       .  A
C1906     Br1911   1.930       .  S
C1907      C4178   1.413       .  A
C1908     Br1909   1.930       .  S
C1913      C1914   1.426       .  A
C1913      C1918   1.415       .  A
C1913     Br1920   1.934       .  S
C1914      C1915   1.424       .  A
C1915      C1916   1.411       .  A
C1915     Br1922   1.934       .  S
C1916      C1917   1.405       .  A
C1916     Br1921   1.932       .  S
C1917      C1918   1.408       .  A
C1918     Br1919   1.933       .  S
C1923      C1924   1.422   1_556  A
C1923      C1928   1.434       .  A
C1923     Br1930   1.930       .  S
C1924      C1925   1.425       .  A
C1925      C1926   1.438       .  A
C1925     Br1932   1.931       .  S
C1926      C1927   1.426       .  A
C1926     Br1931   1.930       .  S
C1927      C1928   1.424   1_554  A
C1928     Br1929   1.929       .  S
C1933      C1934   1.430   1_556  A
C1933      C1938   1.441       .  A
C1933     Br1940   1.931       .  S
C1934      C1935   1.428       .  A
C1935      C1936   1.437       .  A
C1935     Br1942   1.929       .  S
C1936      C1937   1.425       .  A
C1936     Br1941   1.932       .  S
C1937      C1938   1.429   1_554  A
C1938     Br1939   1.933       .  S
C1943      C1948   1.412       .  A
C1943     Br1950   1.933       .  S
C1944      C1945   1.406       .  A
C1945      C1946   1.412       .  A
C1945     Br1952   1.934       .  S
C1946      C1947   1.424       .  A
C1946     Br1951   1.933       .  S
C1948     Br1949   1.931       .  S
C1953      C4226   1.416       .  A
C1953      C1958   1.411       .  A
C1953     Br1960   1.932       .  S
C1954      C4225   1.415       .  A
C1954      C1955   1.415       .  A
C1955      C1956   1.415       .  A
C1955     Br1962   1.931       .  S
C1956      C1957   1.412       .  A
C1956     Br1961   1.928       .  S
C1957      C4230   1.408       .  A
C1958      C4229   1.408       .  A
C1958     Br1959   1.929       .  S
C1963      C1964   1.425   1_556  A
C1963      C1968   1.437       .  A
C1963     Br1970   1.930       .  S
C1964      C4237   1.425       .  A
C1965      C4236   1.425       .  A
C1965      C1966   1.439       .  A
C1965     Br1972   1.925       .  S
C1966      C4239   1.426       .  A
C1966     Br1971   1.930       .  S
C1967      C4238   1.426       .  A
C1967      C1968   1.425   1_554  A
C1968     Br1969   1.930       .  S
C1973      C4246   1.425   1_556  A
C1973      C1978   1.437       .  A
C1973     Br1980   1.930       .  S
C1974      C4245   1.425   1_554  A
C1974      C1975   1.424       .  A
C1975      C1976   1.438       .  A
C1975     Br1982   1.927       .  S
C1976      C1977   1.426       .  A
C1976     Br1981   1.929       .  S
C1977      C4250   1.425   1_554  A
C1978      C4249   1.425   1_556  A
C1978     Br1979   1.929       .  S
C1983      C4256   1.410       .  A
C1983      C1988   1.415       .  A
C1983     Br1990   1.929       .  S
C1984      C4255   1.410       .  A
C1985      C1986   1.415       .  A
C1985     Br1992   1.930       .  S
C1986     Br1991   1.928       .  S
C1987      C4260   1.417       .  A
C1988      C4259   1.417       .  A
C1988     Br1989   1.932       .  S
C1993      C1994   1.427       .  A
C1993      C1998   1.413       .  A
C1993     Br2000   1.935       .  S
C1994      C1995   1.428       .  A
C1995      C1996   1.412       .  A
C1995     Br2002   1.935       .  S
C1996      C1997   1.404       .  A
C1996     Br2001   1.932       .  S
C1997      C1998   1.406       .  A
C1998     Br1999   1.933       .  S
C2003      C2004   1.425       .  A
C2003      C2008   1.415       .  A
C2003     Br2010   1.933       .  S
C2005      C2006   1.412       .  A
C2005     Br2012   1.933       .  S
C2006     Br2011   1.934       .  S
C2007      C2008   1.407       .  A
C2008     Br2009   1.932       .  S
C2013      C2014   1.423       .  A
C2013      C2018   1.438       .  A
C2013     Br2020   1.927       .  S
C2014      C2015   1.426       .  A
C2015      C2016   1.438       .  A
C2015     Br2022   1.927       .  S
C2016      C2017   1.422       .  A
C2016     Br2021   1.930       .  S
C2017      C2018   1.424       .  A
C2018     Br2019   1.928       .  S
C2023      C2024   1.435       .  A
C2023      C2028   1.444       .  A
C2023     Br2030   1.934       .  S
C2024      C2025   1.435       .  A
C2025      C2026   1.447       .  A
C2025     Br2032   1.933       .  S
C2026      C2027   1.433       .  A
C2026     Br2031   1.933       .  S
C2027      C2028   1.431       .  A
C2028     Br2029   1.933       .  S
C2033      C2034   1.421       .  A
C2033      C2038   1.411       .  A
C2033     Br2040   1.933       .  S
C2034      C4307   1.424       .  A
C2035      C4306   1.424       .  A
C2035      C2036   1.411       .  A
C2035     Br2042   1.937       .  S
C2036      C4309   1.407       .  A
C2036     Br2041   1.933       .  S
C2037      C4308   1.408       .  A
C2037      C2038   1.407       .  A
C2038     Br2039   1.932       .  S
C2043      C2048   1.440       .  A
C2043     Br2050   1.932       .  S
C2044      C2045   1.431       .  A
C2045      C2046   1.442       .  A
C2045     Br2052   1.930       .  S
C2046      C2047   1.427       .  A
C2046     Br2051   1.927       .  S
C2048     Br2049   1.931       .  S
C2053      C2058   1.442       .  A
C2053     Br2060   1.930       .  S
C2054      C2055   1.430       .  A
C2055      C2056   1.443       .  A
C2055     Br2062   1.928   1_545  S
C2056      C2057   1.425       .  A
C2056     Br2061   1.927   1_545  S
C2058     Br2059   1.930       .  S
C2063      C4336   1.428       .  A
C2063      C2068   1.413       .  A
C2063     Br2070   1.936   1_645  S
C2064      C4335   1.428       .  A
C2065      C2066   1.418       .  A
C2065     Br2072   1.933       .  S
C2066     Br2071   1.932       .  S
C2067      C4340   1.406       .  A
C2068      C4339   1.406       .  A
C2068     Br2069   1.935   1_645  S
C2073      C2074   1.409       .  A
C2073      C2078   1.414       .  A
C2073     Br2080   1.930       .  S
C2074      C2075   1.409       .  A
C2075      C2076   1.408       .  A
C2075     Br2082   1.930       .  S
C2076      C2077   1.413       .  A
C2076     Br2081   1.931       .  S
C2077      C2078   1.419       .  A
C2078     Br2079   1.932       .  S
C2083      C2084   1.417       .  A
C2083      C2088   1.411       .  A
C2083     Br2090   1.934   1_545  S
C2084      C2085   1.417       .  A
C2085      C2086   1.412       .  A
C2086      C2087   1.408       .  A
C2086     Br2091   1.930       .  S
C2087      C2088   1.409       .  A
C2088     Br2089   1.928   1_545  S
C2093      C4366   1.418   1_455  A
C2093      C2098   1.412       .  A
C2093     Br2100   1.929       .  S
C2094      C4365   1.418       .  A
C2094      C2095   1.417       .  A
C2095      C2096   1.412       .  A
C2095     Br2102   1.931       .  S
C2096      C2097   1.408       .  A
C2096     Br2101   1.931       .  S
C2097      C4370   1.408       .  A
C2098      C4369   1.408   1_455  A
C2098     Br2099   1.932       .  S
C2103      C2104   1.407       .  A
C2103      C2108   1.403       .  A
C2103     Br2110   1.927       .  S
C2104      C2105   1.407       .  A
C2105      C2106   1.394       .  A
C2105     Br2112   1.935       .  S
C2106      C2107   1.409       .  A
C2106     Br2111   1.935       .  S
C2107      C2108   1.406       .  A
C2108     Br2109   1.926       .  S
C2113      C2114   1.404       .  A
C2113      C2118   1.402       .  A
C2113     Br2120   1.923       .  S
C2114      C2115   1.405       .  A
C2115      C2116   1.393       .  A
C2115     Br2122   1.934       .  S
C2116      C2117   1.409       .  A
C2116     Br2121   1.934       .  S
C2117      C2118   1.404       .  A
C2118     Br2119   1.924       .  S
C2123      C4396   1.416   1_465  A
C2123      C2128   1.413       .  A
C2123     Br2130   1.932       .  S
C2124      C4395   1.416   1_545  A
C2125      C2126   1.415       .  A
C2125     Br2132   1.925       .  S
C2126      C2127   1.410       .  A
C2126     Br2131   1.930       .  S
C2127      C3264   1.410       .  A
C2128      C3263   1.410   1_465  A
C2128     Br2129   1.930       .  S
C2133      C2138   1.393       .  A
C2133     Br2140   1.933       .  S
C2134      C2135   1.407       .  A
C2135      C2136   1.400       .  A
C2135     Br2142   1.929       .  S
C2136     Br2141   1.925       .  S
C2137      C2138   1.409       .  A
C2138     Br2139   1.933       .  S
C2143      C2148   1.399       .  A
C2143     Br2150   1.925       .  S
C2144      C2145   1.412       .  A
C2145      C2146   1.391       .  A
C2145     Br2152   1.935   1_545  S
C2146     Br2151   1.934   1_545  S
C2147      C2148   1.405       .  A
C2148     Br2149   1.929       .  S
C2153      C2154   1.405       .  A
C2153      C2158   1.412       .  A
C2153     Br2160   1.932       .  S
C2154      C2155   1.408       .  A
C2155      C2156   1.411       .  A
C2155     Br2162   1.935       .  S
C2156      C2157   1.422       .  A
C2156     Br2161   1.933       .  S
C2157      C2158   1.425       .  A
C2158     Br2159   1.935       .  S
C2163      C2164   1.413       .  A
C2163      C2168   1.411       .  A
C2163     Br2170   1.931       .  S
C2164      C2165   1.411       .  A
C2165      C2166   1.410       .  A
C2165     Br2172   1.929       .  S
C2166      C2167   1.411       .  A
C2166     Br2171   1.929       .  S
C2167      C2168   1.411       .  A
C2168     Br2169   1.929       .  S
C2173      C2178   1.411       .  A
C2173     Br2180   1.933       .  S
C2174      C2175   1.404       .  A
C2175      C2176   1.409       .  A
C2175     Br2182   1.934       .  S
C2176      C2177   1.425       .  A
C2176     Br2181   1.933       .  S
C2178     Br2179   1.934       .  S
C2183      C2184   1.407       .  A
C2183      C2188   1.404       .  A
C2183     Br2190   1.926       .  S
C2184      C2185   1.407       .  A
C2185      C2186   1.395       .  A
C2185     Br2192   1.935       .  S
C2186      C2187   1.411       .  A
C2186     Br2191   1.935       .  S
C2187      C2188   1.407       .  A
C2188     Br2189   1.927       .  S
C2193      C2194   1.408       .  A
C2193      C2198   1.408       .  A
C2193     Br2200   1.926       .  S
C2194      C2195   1.409       .  A
C2195      C2196   1.397       .  A
C2195     Br2202   1.935       .  S
C2196      C2197   1.409       .  A
C2196     Br2201   1.935       .  S
C2197      C2198   1.408       .  A
C2198     Br2199   1.926       .  S
C2203      C2208   1.406       .  A
C2203     Br2210   1.930       .  S
C2204      C2205   1.409   1_545  A
C2205      C2206   1.409       .  A
C2205     Br2212   1.931       .  S
C2206      C2207   1.415   1_565  A
C2206     Br2211   1.931       .  S
C2208     Br2209   1.930       .  S
C2213      C4486   1.407       .  A
C2213      C2218   1.415       .  A
C2213     Br2220   1.933       .  S
C2214      C4485   1.407       .  A
C2214      C2215   1.406       .  A
C2215      C2216   1.415       .  A
C2215     Br2222   1.933       .  S
C2216      C2217   1.428       .  A
C2216     Br2221   1.934       .  S
C2217      C4490   1.429       .  A
C2218      C4489   1.429       .  A
C2218     Br2219   1.936       .  S
C2223      C2224   1.413       .  A
C2223      C2228   1.412       .  A
C2223     Br2230   1.932       .  S
C2224      C4497   1.416       .  A
C2225      C4496   1.416       .  A
C2225      C2226   1.412       .  A
C2225     Br2232   1.933       .  S
C2226      C4499   1.413       .  A
C2226     Br2231   1.931       .  S
C2227      C4498   1.413       .  A
C2227      C2228   1.416       .  A
C2228     Br2229   1.930       .  S
C2233      C2238   1.417       .  A
C2233     Br2240   1.933   1_565  S
C2234      C4507   1.431       .  A
C2235      C4506   1.431       .  A
C2235      C2236   1.410       .  A
C2235     Br2242   1.935       .  S
C2236      C4509   1.401       .  A
C2236     Br2241   1.936       .  S
C2237      C4508   1.401       .  A
C2238     Br2239   1.932   1_565  S
C2243      C2244   1.405       .  A
C2243      C2248   1.405       .  A
C2243     Br2250   1.927       .  S
C2244      C4517   1.409       .  A
C2245      C4516   1.409       .  A
C2245      C2246   1.396       .  A
C2245     Br2252   1.934       .  S
C2246      C4519   1.408       .  A
C2246     Br2251   1.936       .  S
C2247      C4518   1.408       .  A
C2247      C2248   1.410       .  A
C2248     Br2249   1.927       .  S
C2253      C2254   1.406   1_455  A
C2253      C2258   1.395       .  A
C2253     Br2260   1.933       .  S
C2254      C4527   1.407       .  A
C2255      C4526   1.407       .  A
C2255      C2256   1.406       .  A
C2255     Br2262   1.927       .  S
C2256      C4529   1.409       .  A
C2256     Br2261   1.925       .  S
C2257      C4528   1.409       .  A
C2257      C2258   1.410   1_655  A
C2258     Br2259   1.936       .  S
C2263      C2268   1.416       .  A
C2263     Br2270   1.929       .  S
C2264      C4537   1.418       .  A
C2265      C4536   1.418   1_455  A
C2265      C2266   1.415       .  A
C2265     Br2272   1.931       .  S
C2266      C4539   1.413       .  A
C2266     Br2271   1.930       .  S
C2267      C4538   1.413       .  A
C2268     Br2269   1.930       .  S
N2273      C2278   1.351       .  A
N2273      C2277   1.357       .  A
N2273      H2305   1.040   1_545  S
N2274      C2281   1.353       .  A
N2274      C2282   1.348       .  A
N2275      C2280   1.357       .  A
N2275      C2279   1.348       .  A
N2275      H2306   1.039       .  S
N2276      C2283   1.346       .  A
N2276      C2284   1.353       .  A
C2277      C2285   1.383       .  A
C2277      C2293   1.412   1_545  A
C2278      C2294   1.419       .  A
C2278      C2286   1.391       .  A
C2279      C2287   1.386       .  A
C2280      C3431   1.420       .  A
C2280      C2288   1.387       .  A
C2281      C3429   1.407       .  A
C2281      C2289   1.383       .  A
C2282      C2296   1.412       .  A
C2282      C2290   1.389       .  A
C2283      C2291   1.388       .  A
C2284      C2292   1.385       .  A
C2284      C2295   1.419   1_645  A
C2285      C2286   1.375       .  A
C2285      H2297   1.082       .  S
C2286      H2298   1.082       .  S
C2287      C2288   1.379       .  A
C2287      H2299   1.082       .  S
C2288      H2300   1.082       .  S
C2289      C2290   1.371       .  A
C2289      H2301   1.082       .  S
C2290      H2302   1.082       .  S
C2291      C2292   1.378       .  A
C2291      H2303   1.083       .  S
C2292      H2304   1.082       .  S
C2293      C3417   1.407       .  A
C2293      C3373   1.497       .  S
C2294      C3393   1.476       .  S
C2295      C3416   1.420       .  A
C2295      C3403   1.511       .  S
C2296      C3383   1.474       .  S
N2307      C2312   1.358       .  A
N2307      C2311   1.350       .  A
N2307      H2339   1.040       .  S
N2308      C2315   1.343       .  A
N2308      C2316   1.351       .  A
N2309      C2314   1.345       .  A
N2309      C2313   1.357       .  A
N2309      H2340   1.040       .  S
N2310      C2317   1.355       .  A
N2310      C2318   1.349       .  A
C2311      C2319   1.391       .  A
C2311      C2327   1.419       .  A
C2312      C2328   1.414       .  A
C2312      C2320   1.383       .  A
C2313      C2321   1.387   1_455  A
C2313      C2330   1.419       .  A
C2314      C2322   1.386   1_455  A
C2315      C2323   1.387       .  A
C2316      C2330   1.414       .  A
C2316      C2324   1.385       .  A
C2317      C2325   1.383       .  A
C2317      C2328   1.411       .  A
C2318      C2326   1.389       .  A
C2318      C2329   1.415       .  A
C2319      C2320   1.377       .  A
C2319      H2331   1.082       .  S
C2320      H2332   1.082       .  S
C2321      C2322   1.378       .  A
C2321      H2333   1.082       .  S
C2322      H2334   1.082       .  S
C2323      C2324   1.377       .  A
C2323      H2335   1.082       .  S
C2324      H2336   1.082       .  S
C2325      C2326   1.372       .  A
C2325      H2337   1.082       .  S
C2326      H2338   1.082       .  S
C2327      C3380   1.473       .  S
C2328      C3350   1.503       .  S
C2329      C3390   1.472       .  S
C2330      C3363   1.507       .  S
N2341      C2346   1.354       .  A
N2341      C2345   1.351       .  A
N2341      H2373   1.040       .  S
N2342      C2349   1.342       .  A
N2342      C2350   1.348       .  A
N2343      C2348   1.345       .  A
N2343      C2347   1.354       .  A
N2343      H2374   1.039       .  S
N2344      C2351   1.353       .  A
N2344      C2352   1.351       .  A
C2345      C2353   1.390       .  A
C2345      C2361   1.415       .  A
C2346      C3498   1.410       .  A
C2346      C2354   1.385       .  A
C2347      C2355   1.388       .  A
C2347      C3500   1.418       .  A
C2348      C2363   1.406       .  A
C2348      C2356   1.386       .  A
C2349      C2361   1.403       .  A
C2349      C2357   1.386       .  A
C2350      C2364   1.413       .  A
C2350      C2358   1.387       .  A
C2351      C2359   1.384       .  A
C2351      C2362   1.411       .  A
C2352      C2360   1.387       .  A
C2352      C2363   1.414       .  A
C2353      C2354   1.371       .  A
C2353      H2365   1.082       .  S
C2354      H2366   1.082       .  S
C2355      C2356   1.379       .  A
C2355      H2367   1.082       .  S
C2356      H2368   1.082       .  S
C2357      C2358   1.378       .  A
C2357      H2369   1.082       .  S
C2358      H2370   1.082       .  S
C2359      C2360   1.374       .  A
C2359      H2371   1.082       .  S
C2360      H2372   1.082       .  S
C2361      C3323   1.474       .  S
C2362      C3482   1.410   1_545  A
C2362      C3310   1.491       .  S
C2363      C3330   1.476       .  S
C2364      C3483   1.418       .  A
C2364      C3343   1.496       .  S
N2375      C2380   1.354       .  A
N2375      C2379   1.350       .  A
N2375      H2407   1.039       .  S
N2376      C2383   1.344       .  A
N2376      C2384   1.349       .  A
N2377      C2382   1.346       .  A
N2377      C2381   1.356       .  A
N2377      H2408   1.037       .  S
N2378      C2385   1.354       .  A
N2378      C2386   1.351       .  A
C2379      C2387   1.390       .  A
C2379      C2395   1.416       .  A
C2380      C2396   1.410       .  A
C2380      C2388   1.384       .  A
C2381      C2389   1.387       .  A
C2381      C2398   1.419       .  A
C2382      C2397   1.410       .  A
C2382      C2390   1.386       .  A
C2383      C2395   1.406       .  A
C2383      C2391   1.387       .  A
C2384      C2398   1.412       .  A
C2384      C2392   1.386       .  A
C2385      C2393   1.385       .  A
C2385      C2396   1.411       .  A
C2386      C2394   1.388       .  A
C2386      C2397   1.413       .  A
C2387      C2388   1.376       .  A
C2387      H2399   1.082       .  S
C2388      H2400   1.082       .  S
C2389      C2390   1.380       .  A
C2389      H2401   1.082       .  S
C2390      H2402   1.082       .  S
C2391      C2392   1.374       .  A
C2391      H2403   1.082       .  S
C2392      H2404   1.082       .  S
C2393      C2394   1.369       .  A
C2393      H2405   1.082       .  S
C2394      H2406   1.082       .  S
C2395      C3320   1.472       .  S
C2396      C3290   1.493       .  S
C2397      C3333   1.477       .  S
C2398      C3300   1.498       .  S
N2409      C2414   1.341       .  A
N2409      C2413   1.354       .  A
N2409      H2441   1.041   1_545  S
N2410      C2417   1.354       .  A
N2410      C2418   1.342       .  A
N2411      C2416   1.361       .  A
N2411      C2415   1.349       .  A
N2411      H2442   1.042       .  S
N2412      C2419   1.346       .  A
N2412      C2420   1.354   1_545  A
C2413      C2421   1.384       .  A
C2414      C2430   1.403       .  A
C2414      C2422   1.389       .  A
C2415      C2423   1.391       .  A
C2415      C2432   1.418       .  A
C2416      C2431   1.418       .  A
C2416      C2424   1.384       .  A
C2417      C2429   1.411   1_565  A
C2417      C2425   1.381       .  A
C2418      C2432   1.412       .  A
C2418      C2426   1.392       .  A
C2419      C2427   1.389       .  A
C2419      C2430   1.412       .  A
C2420      C2428   1.384       .  A
C2421      C2422   1.374       .  A
C2421      H2433   1.082       .  S
C2422      H2434   1.082       .  S
C2423      C2424   1.378       .  A
C2423      H2435   1.082       .  S
C2424      H2436   1.082       .  S
C2425      C2426   1.377       .  A
C2425      H2437   1.082       .  S
C2426      H2438   1.082       .  S
C2427      C2428   1.376   1_545  A
C2427      H2439   1.083       .  S
C2428      H2440   1.082       .  S
C2429      C3263   1.501       .  S
C2430      C3283   1.462       .  S
C2431      C3400   1.516       .  S
C2432      C3273   1.467       .  S
N2443      C2448   1.342       .  A
N2443      C2447   1.352       .  A
N2443      H2475   1.040       .  S
N2444      C2451   1.352       .  A
N2444      C2452   1.342       .  A
N2445      C2450   1.357       .  A
N2445      C2449   1.348       .  A
N2445      H2476   1.041       .  S
N2446      C2453   1.346       .  A
N2446      C2454   1.352       .  A
C2447      C2455   1.386       .  A
C2448      C2464   1.402       .  A
C2448      C2456   1.387       .  A
C2449      C2457   1.391       .  A
C2449      C2466   1.417       .  A
C2450      C2465   1.415   1_655  A
C2450      C2458   1.384       .  A
C2451      C2463   1.409       .  A
C2451      C2459   1.382       .  A
C2452      C2466   1.410       .  A
C2452      C2460   1.391       .  A
C2453      C2461   1.388       .  A
C2453      C2464   1.410       .  A
C2454      C2462   1.383       .  A
C2455      C2456   1.376       .  A
C2455      H2467   1.082       .  S
C2456      H2468   1.082       .  S
C2457      C2458   1.378       .  A
C2457      H2469   1.082       .  S
C2458      H2470   1.082       .  S
C2459      C2460   1.375       .  A
C2459      H2471   1.082       .  S
C2460      H2472   1.082       .  S
C2461      C2462   1.372       .  A
C2461      H2473   1.081       .  S
C2462      H2474   1.082       .  S
C2463      C3233   1.495       .  S
C2464      C3250   1.464       .  S
C2465      C3360   1.504       .  S
C2466      C3240   1.468       .  S
N2477      C2482   1.356       .  A
N2477      C2481   1.345       .  A
N2477      H2509   1.036       .  S
N2478      C2485   1.346       .  A
N2478      C2486   1.353       .  A
N2479      C2484   1.346       .  A
N2479      C2483   1.355       .  A
N2479      H2510   1.040       .  S
N2480      C2487   1.350       .  A
N2480      C2488   1.342       .  A
C2481      C2489   1.388       .  A
C2481      C2497   1.412       .  A
C2482      C2498   1.419       .  A
C2482      C2490   1.386       .  A
C2483      C2491   1.382       .  A
C2483      C2500   1.405       .  A
C2484      C2499   1.414       .  A
C2484      C2492   1.392       .  A
C2485      C2497   1.413       .  A
C2485      C2493   1.392       .  A
C2486      C2500   1.401       .  A
C2486      C2494   1.380       .  A
C2487      C2495   1.385       .  A
C2487      C2498   1.412       .  A
C2488      C2496   1.388       .  A
C2488      C2499   1.407       .  A
C2489      C2490   1.381       .  A
C2489      H2501   1.083       .  S
C2490      H2502   1.082       .  S
C2491      C2492   1.372       .  A
C2491      H2503   1.082       .  S
C2492      H2504   1.082       .  S
C2493      C2494   1.365       .  A
C2493      H2505   1.081       .  S
C2494      H2506   1.082       .  S
C2495      C2496   1.377       .  A
C2495      H2507   1.082       .  S
C2496      H2508   1.082       .  S
C2497      C3280   1.468       .  S
C2498      C3223   1.498       .  S
C2499      C3270   1.464       .  S
C2500      C3340   1.488       .  S
N2511      C2516   1.354       .  A
N2511      C2515   1.344       .  A
N2511      H2543   1.029       .  S
N2512      C2519   1.348       .  A
N2512      C2520   1.354       .  A
N2513      C2518   1.351       .  A
N2513      C2517   1.359       .  A
N2513      H2544   1.033       .  S
N2514      C2521   1.352       .  A
N2514      C2522   1.342       .  A
C2515      C2523   1.386       .  A
C2515      C2531   1.403       .  A
C2516      C2532   1.414       .  A
C2516      C2524   1.387       .  A
C2517      C2525   1.384       .  A
C2517      C2534   1.415       .  A
C2518      C2533   1.419       .  A
C2518      C2526   1.390       .  A
C2519      C2531   1.415       .  A
C2519      C2527   1.389       .  A
C2520      C2534   1.408       .  A
C2520      C2528   1.383       .  A
C2521      C2529   1.383       .  A
C2521      C2532   1.412       .  A
C2522      C2530   1.390       .  A
C2522      C2533   1.410       .  A
C2523      C2524   1.375       .  A
C2523      H2535   1.082       .  S
C2524      H2536   1.082       .  S
C2525      C2526   1.374       .  A
C2525      H2537   1.082       .  S
C2526      H2538   1.082       .  S
C2527      C2528   1.368       .  A
C2527      H2539   1.081       .  S
C2528      H2540   1.082       .  S
C2529      C2530   1.378       .  A
C2529      H2541   1.082       .  S
C2530      H2542   1.082       .  S
C2531      C3253   1.467       .  S
C2532      C3210   1.497       .  S
C2533      C3243   1.469       .  S
C2534      C3303   1.499       .  S
O2545     Cu2553   2.015       .  S
O2545      C2555   1.277       .  A
O2546     Cu2553   2.018       .  S
O2546      C2556   1.277       .  A
O2547     Cu2553   2.100       .  S
O2547      C2557   1.289       .  A
O2548      C2558   1.291       .  A
O2549      C3694   1.289       .  A
O2550     Cu2554   2.112       .  S
O2550      C3693   1.290       .  A
O2551     Cu2554   2.041       .  S
O2551      C3692   1.280       .  A
O2552     Cu2554   2.049       .  S
O2552      C3691   1.282       .  A
Cu2553    Cu3690   2.344       .  S
Cu2554    Cu3689   2.344       .  S
C2555      C3260   1.499       .  S
C2555      O3688   1.282       .  A
C2556      C3200   1.517       .  S
C2556      O3687   1.280       .  A
C2557      C3180   1.569       .  S
C2557      O3686   1.290       .  A
C2558      C3190   1.570       .  S
C2558      O3685   1.289       .  A
O2559     Cu2567   2.032       .  S
O2559      C2569   1.280       .  A
O2560     Cu2567   2.021       .  S
O2560      C2570   1.279       .  A
O2561     Cu2567   2.101       .  S
O2561      C2571   1.288       .  A
O2562      C2572   1.290       .  A
O2563      C2572   1.290       .  A
O2564     Cu2568   2.111       .  S
O2564      C2571   1.290       .  A
O2565     Cu2568   2.007       .  S
O2565      C2570   1.276       .  A
O2566     Cu2568   2.021       .  S
O2566      C2569   1.278       .  A
Cu2567    Cu2568   2.348       .  S
C2569      C3230   1.497       .  S
C2570      C3170   1.501       .  S
C2571      C3150   1.554       .  S
C2572      C3163   1.579       .  S
O2573     Cu2581   2.108       .  S
O2573      C2583   1.289       .  A
O2574     Cu2581   2.117       .  S
O2574      C2584   1.291       .  A
O2575     Cu2581   2.030       .  S
O2575      C3721   1.279       .  A
O2576     Cu2581   2.038       .  S
O2576      C2586   1.280       .  A
O2577     Cu2582   2.018       .  S
O2577      C3722   1.277       .  A
O2578     Cu2582   2.011       .  S
O2578      C2585   1.278       .  A
O2579     Cu2582   2.101       .  S
O2579      C3720   1.289       .  A
O2580     Cu2582   2.116       .  S
O2580      C3719   1.291       .  A
Cu2581    Cu3718   2.348       .  S
Cu2582    Cu3717   2.348       .  S
C2583      C4329   1.564       .  S
C2583      O3716   1.291       .  A
C2584      C4319   1.565       .  S
C2584      O3715   1.289       .  A
C2585      C3220   1.496       .  S
C2585      O3711   1.279       .  A
C2586      C3140   1.510       .  S
C2586      O3713   1.277       .  A
O2587     Cu2595   2.019       .  S
O2587      C2597   1.277       .  A
O2588     Cu2595   2.021       .  S
O2588      C2598   1.278       .  A
O2589     Cu2595   2.099       .  S
O2589      C2599   1.289       .  A
O2590     Cu2595   2.124       .  S
O2590      C2600   1.291       .  A
O2591     Cu2596   2.104       .  S
O2591      C2600   1.288       .  A
O2592     Cu2596   2.098       .  S
O2592      C2599   1.288       .  A
O2593     Cu2596   2.023       .  S
O2593      C2598   1.280       .  A
O2594     Cu2596   2.029       .  S
O2594      C2597   1.278       .  A
Cu2595    Cu2596   2.346       .  S
C2597      C3130   1.514       .  S
C2598      C3213   1.493       .  S
C2599      C3153   1.550       .  S
C2600      C3160   1.582       .  S
O2601     Cu2609   2.098   1_545  S
O2601      C2611   1.288       .  A
O2602     Cu3745   2.090       .  S
O2602      C2612   1.287       .  A
O2603     Cu2609   2.053   1_556  S
O2603      C2613   1.283       .  A
O2604     Cu2609   2.051       .  S
O2604      C2614   1.282       .  A
O2605     Cu2610   2.005       .  S
O2606     Cu2610   2.013   1_556  S
O2607     Cu3746   2.110       .  S
O2608     Cu2610   2.100   1_545  S
Cu2609     O3738   2.090       .  S
Cu2610     O3743   2.110       .  S
C2611      C3113   1.555       .  S
C2612      C3100   1.556       .  S
C2613      C4259   1.498       .  S
C2614      C3370   1.515       .  S
O2615     Cu2623   2.099       .  S
O2616     Cu2623   2.087       .  S
O2617     Cu2623   2.022       .  S
O2618     Cu2623   2.016   1_556  S
O2619     Cu2624   2.030   1_556  S
O2619      C2628   1.279       .  A
O2620     Cu2624   2.032       .  S
O2620      C2627   1.279       .  A
O2621     Cu2624   2.108       .  S
O2621      C2626   1.290       .  A
O2622     Cu2624   2.099       .  S
O2622      C2625   1.289       .  A
C2625      C3103   1.555       .  S
C2626      C3110   1.554       .  S
C2627      C3353   1.518       .  S
C2628      C3090   1.493       .  S
O2629     Cu2637   2.023       .  S
O2629      C2639   1.279       .  A
O2630     Cu2637   2.033   1_556  S
O2630      C2640   1.280       .  A
O2631     Cu3773   2.091       .  S
O2631      C2641   1.287       .  A
O2632     Cu2637   2.096   1_545  S
O2632      C2642   1.287       .  A
O2633     Cu2638   2.104   1_545  S
O2633      C2642   1.290       .  A
O2634     Cu3774   2.100       .  S
O2634      C2641   1.288       .  A
O2635     Cu2638   2.016   1_556  S
O2635      C2640   1.277       .  A
O2636     Cu2638   2.010       .  S
O2636      C2639   1.276       .  A
Cu2637     O3767   2.091       .  S
Cu2637    Cu2638   2.347       .  S
Cu2638     O3770   2.100       .  S
C2639      C3313   1.502       .  S
C2640      C3083   1.503       .  S
C2641      C3063   1.551       .  S
C2642      C3070   1.564       .  S
O2643     Cu2651   2.093       .  S
O2643      C2653   1.287       .  A
O2644     Cu2651   2.096       .  S
O2644      C2654   1.288       .  A
O2645     Cu2651   2.016   1_556  S
O2645      C2655   1.278       .  A
O2646     Cu2651   2.020       .  S
O2646      C2656   1.278       .  A
O2647     Cu2652   2.016       .  S
O2647      C2656   1.277       .  A
O2648     Cu2652   2.023   1_556  S
O2648      C2655   1.278       .  A
O2649     Cu2652   2.098       .  S
O2649      C2654   1.288       .  A
O2650     Cu2652   2.091       .  S
O2650      C2653   1.288       .  A
Cu2651    Cu2652   2.346       .  S
C2653      C3060   1.549       .  S
C2654      C3073   1.561       .  S
C2655      C3050   1.506       .  S
C2656      C3293   1.503       .  S
N2657      C2662   1.345       .  A
N2657      C2661   1.359       .  A
N2657      H2689   1.039       .  S
N2658      C2665   1.350       .  A
N2658      C2666   1.342       .  A
N2659      C2663   1.350       .  A
N2659      H2690   1.040       .  S
N2660      C2667   1.348       .  A
C2661      C2669   1.384       .  A
C2661      C2677   1.418       .  A
C2662      C2678   1.413       .  A
C2662      C2670   1.388       .  A
C2663      C2680   1.419       .  A
C2664      C3815   1.415       .  A
C2664      C2672   1.383       .  A
C2665      C3813   1.411   1_545  A
C2665      C2673   1.385       .  A
C2666      C2680   1.406       .  A
C2666      C2674   1.388       .  A
C2667      C2678   1.414       .  A
C2668      C2676   1.384       .  A
C2668      C2679   1.413       .  A
C2669      C2670   1.379       .  A
C2669      H2681   1.082       .  S
C2670      H2682   1.081       .  S
C2671      C2672   1.375   1_655  A
C2671      H2683   1.081       .  S
C2672      H2684   1.082       .  S
C2673      C2674   1.373       .  A
C2673      H2685   1.082       .  S
C2674      H2686   1.082       .  S
C2675      C2676   1.377       .  A
C2675      H2687   1.082       .  S
C2676      H2688   1.082       .  S
C2677      C3801   1.411       .  A
C2677      C3120   1.505       .  S
C2678      C3020   1.473       .  S
C2679      C3800   1.415       .  A
C2679      C3043   1.508       .  S
C2680      C3033   1.470       .  S
N2691      C2696   1.358       .  A
N2691      C2695   1.346       .  A
N2691      H2723   1.030       .  S
N2692      C2699   1.350       .  A
N2693      C2698   1.351       .  A
N2693      H2724   1.038       .  S
N2694      C2701   1.349       .  A
N2694      C2702   1.342       .  A
C2695      C2703   1.386       .  A
C2695      C2711   1.414       .  A
C2696      C2712   1.423       .  A
C2696      C2704   1.386       .  A
C2697      C2705   1.382       .  A
C2697      C2714   1.411   1_655  A
C2698      C2713   1.420       .  A
C2699      C2711   1.418       .  A
C2700      C2714   1.409       .  A
C2700      C2708   1.382       .  A
C2701      C2709   1.386       .  A
C2701      C2712   1.413       .  A
C2702      C2710   1.388       .  A
C2702      C2713   1.406       .  A
C2703      C2704   1.382       .  A
C2703      H2715   1.082       .  S
C2704      H2716   1.082       .  S
C2705      C2706   1.371       .  A
C2705      H2717   1.082       .  S
C2706      H2718   1.081       .  S
C2707      C2708   1.372       .  A
C2707      H2719   1.082       .  S
C2708      H2720   1.082       .  S
C2709      C2710   1.374       .  A
C2709      H2721   1.082       .  S
C2710      H2722   1.083       .  S
C2711      C3023   1.476       .  S
C2712      C3093   1.500       .  S
C2713      C3030   1.472       .  S
C2714      C3010   1.497       .  S
N2725      C2730   1.356       .  A
N2725      C2729   1.351       .  A
N2725      H2757   1.039   1_545  S
N2726      C2733   1.345       .  A
N2726      C2734   1.351       .  A
N2727      C2732   1.345       .  A
N2727      C2731   1.353       .  A
N2727      H2758   1.038       .  S
N2728      C2735   1.353       .  A
N2728      C2736   1.350       .  A
C2729      C2737   1.390       .  A
C2729      C2745   1.418       .  A
C2730      C2746   1.414   1_545  A
C2730      C2738   1.385       .  A
C2731      C2739   1.389       .  A
C2731      C3884   1.418       .  A
C2732      C2747   1.405       .  A
C2732      C2740   1.385       .  A
C2733      C2745   1.408       .  A
C2733      C2741   1.386       .  A
C2734      C2748   1.418   1_545  A
C2734      C2742   1.387       .  A
C2735      C2743   1.384       .  A
C2735      C3882   1.410       .  A
C2736      C2744   1.388       .  A
C2736      C2747   1.412       .  A
C2737      C2738   1.371       .  A
C2737      H2749   1.082       .  S
C2738      H2750   1.082       .  S
C2739      C2740   1.379       .  A
C2739      H2751   1.082       .  S
C2740      H2752   1.082       .  S
C2741      C2742   1.376       .  A
C2741      H2753   1.082       .  S
C2742      H2754   1.082       .  S
C2743      C2744   1.371       .  A
C2743      H2755   1.082       .  S
C2744      H2756   1.082       .  S
C2745      C2990   1.475       .  S
C2746      C3871   1.410       .  A
C2746      C3080   1.495       .  S
C2747      C2980   1.475       .  S
C2748      C3867   1.417       .  A
C2748      C3000   1.499       .  S
N2759      C2764   1.352       .  A
N2759      C2763   1.354       .  A
N2759      H2791   1.040       .  S
N2760      C2767   1.355       .  A
N2760      C2768   1.351       .  A
N2761      C2766   1.354       .  A
N2761      C2765   1.345       .  A
N2761      H2792   1.036       .  S
N2762      C2769   1.342       .  A
N2762      C2770   1.347       .  A
C2763      C2771   1.385       .  A
C2763      C2779   1.411       .  A
C2764      C2780   1.416       .  A
C2764      C2772   1.389       .  A
C2765      C2773   1.388       .  A
C2765      C2782   1.409       .  A
C2766      C2781   1.416       .  A
C2766      C2774   1.386       .  A
C2767      C2779   1.412       .  A
C2767      C2775   1.384       .  A
C2768      C2782   1.417       .  A
C2768      C2776   1.388       .  A
C2769      C2777   1.387       .  A
C2769      C2780   1.403       .  A
C2770      C2778   1.385       .  A
C2770      C2781   1.409       .  A
C2771      C2772   1.375       .  A
C2771      H2783   1.082       .  S
C2772      H2784   1.082       .  S
C2773      C2774   1.377       .  A
C2773      H2785   1.082       .  S
C2774      H2786   1.082       .  S
C2775      C2776   1.375       .  A
C2775      H2787   1.082       .  S
C2776      H2788   1.083       .  S
C2777      C2778   1.375       .  A
C2777      H2789   1.083       .  S
C2778      H2790   1.082       .  S
C2779      C3053   1.495       .  S
C2780      C2983   1.473       .  S
C2781      C2970   1.490       .  S
C2782      C2993   1.475       .  S
N2793      C2798   1.358       .  A
N2793      C2797   1.352       .  A
N2793      H2825   1.042       .  S
N2794      C2801   1.343       .  A
N2794      C2802   1.350       .  A
N2795      C2800   1.346       .  A
N2795      C2799   1.358       .  A
N2795      H2826   1.041       .  S
N2796      C2803   1.355       .  A
N2796      C2804   1.351       .  A
C2797      C2805   1.389       .  A
C2797      C2813   1.418       .  A
C2798      C2806   1.385       .  A
C2799      C2807   1.387       .  A
C2799      C2816   1.422       .  A
C2800      C2815   1.410       .  A
C2800      C2808   1.386       .  A
C2801      C2813   1.405       .  A
C2801      C2809   1.387       .  A
C2802      C2810   1.385       .  A
C2803      C2811   1.383       .  A
C2803      C2814   1.411       .  A
C2804      C2812   1.388       .  A
C2804      C2815   1.415       .  A
C2805      C2806   1.374       .  A
C2805      H2817   1.083       .  S
C2806      H2818   1.082       .  S
C2807      C2808   1.380       .  A
C2807      H2819   1.082       .  S
C2808      H2820   1.082       .  S
C2809      C2810   1.377       .  A
C2809      H2821   1.081       .  S
C2810      H2822   1.082       .  S
C2811      C2812   1.372       .  A
C2811      H2823   1.082       .  S
C2812      H2824   1.082       .  S
C2813      C2960   1.479       .  S
C2814      C3203   1.502       .  S
C2815      C2950   1.475       .  S
C2816      C3040   1.510       .  S
N2827      C2832   1.350       .  A
N2827      C2831   1.355       .  A
N2827      H2859   1.041       .  S
N2828      C2835   1.354       .  A
N2828      C2836   1.348       .  A
N2829      C2834   1.355       .  A
N2829      C2833   1.342       .  A
N2829      H2860   1.039       .  S
N2830      C2837   1.340       .  A
N2830      C2838   1.349       .  A
C2831      C2839   1.385       .  A
C2832      C2848   1.415       .  A
C2832      C2840   1.389       .  A
C2833      C2841   1.388       .  A
C2833      C2850   1.407       .  A
C2834      C2849   1.416   1_655  A
C2834      C2842   1.386       .  A
C2835      C2847   1.410       .  A
C2835      C2843   1.383       .  A
C2836      C2850   1.415       .  A
C2836      C2844   1.390       .  A
C2837      C2845   1.387       .  A
C2837      C2848   1.404       .  A
C2838      C2846   1.385       .  A
C2839      C2840   1.375       .  A
C2839      H2851   1.082       .  S
C2840      H2852   1.082       .  S
C2841      C2842   1.381       .  A
C2841      H2853   1.082       .  S
C2842      H2854   1.082       .  S
C2843      C2844   1.374       .  A
C2843      H2855   1.082       .  S
C2844      H2856   1.082       .  S
C2845      C2846   1.378       .  A
C2845      H2857   1.082       .  S
C2846      H2858   1.082       .  S
C2847      C3173   1.496       .  S
C2848      C2940   1.469       .  S
C2849      C3013   1.500       .  S
C2850      C2930   1.469       .  S
N2861      C2866   1.355       .  A
N2861      C2865   1.349       .  A
N2861      H2893   1.036       .  S
N2862      C2869   1.349       .  A
N2862      C2870   1.353       .  A
N2863      C2868   1.351       .  A
N2863      C2867   1.356       .  A
N2863      H2894   1.038       .  S
N2864      C2871   1.353   1_565  A
N2864      C2872   1.348       .  A
C2865      C2873   1.389       .  A
C2865      C2881   1.415       .  A
C2866      C2882   1.415       .  A
C2866      C2874   1.385       .  A
C2867      C2875   1.385       .  A
C2867      C2884   1.413       .  A
C2868      C2883   1.417       .  A
C2868      C2876   1.390       .  A
C2869      C2881   1.415       .  A
C2869      C2877   1.389       .  A
C2870      C2884   1.413   1_545  A
C2870      C2878   1.385       .  A
C2871      C2879   1.384   1_545  A
C2871      C2882   1.414       .  A
C2872      C2880   1.388       .  A
C2872      C2883   1.413       .  A
C2873      C2874   1.375       .  A
C2873      H2885   1.082       .  S
C2874      H2886   1.082       .  S
C2875      C2876   1.370       .  A
C2875      H2887   1.082       .  S
C2876      H2888   1.082       .  S
C2877      C2878   1.371       .  A
C2877      H2889   1.082       .  S
C2878      H2890   1.082   1_545  S
C2879      C2880   1.373       .  A
C2879      H2891   1.082       .  S
C2880      H2892   1.081       .  S
C2881      C2963   1.478       .  S
C2882      C3143   1.498       .  S
C2883      C2953   1.479       .  S
C2884      C3003   1.498       .  S
N2895      C2900   1.354       .  A
N2895      C2899   1.348       .  A
N2895      H2927   1.040       .  S
N2896      C2903   1.341       .  A
N2896      C2904   1.348       .  A
N2897      C2902   1.345       .  A
N2897      C2901   1.355       .  A
N2897      H2928   1.040       .  S
N2898      C2905   1.354       .  A
N2898      C2906   1.347       .  A
C2899      C2907   1.391       .  A
C2899      C2915   1.414       .  A
C2900      C2916   1.409       .  A
C2900      C2908   1.383       .  A
C2901      C2909   1.385       .  A
C2901      C2918   1.414       .  A
C2902      C2917   1.408       .  A
C2902      C2910   1.388       .  A
C2903      C2915   1.404       .  A
C2903      C2911   1.388       .  A
C2904      C2918   1.408       .  A
C2904      C2912   1.385       .  A
C2905      C2913   1.382       .  A
C2905      C2916   1.408       .  A
C2906      C2914   1.390       .  A
C2906      C2917   1.413       .  A
C2907      C2908   1.376       .  A
C2907      H2919   1.082       .  S
C2908      H2920   1.082       .  S
C2909      C2910   1.379       .  A
C2909      H2921   1.082       .  S
C2910      H2922   1.082       .  S
C2911      C2912   1.375       .  A
C2911      H2923   1.082       .  S
C2912      H2924   1.082       .  S
C2913      C2914   1.374       .  A
C2913      H2925   1.082       .  S
C2914      H2926   1.082       .  S
C2915      C2943   1.466       .  S
C2916      C3133   1.496       .  S
C2917      C2933   1.469       .  S
C2918      C2973   1.493       .  S
C2929      C2930   1.405       .  A
C2929      C2934   1.403       .  A
C2929     Br2936   1.927       .  S
C2930      C2931   1.410       .  A
C2931      C2932   1.394       .  A
C2931     Br2938   1.933       .  S
C2932      C2933   1.407       .  A
C2932     Br2937   1.937       .  S
C2933      C2934   1.407       .  A
C2934     Br2935   1.926       .  S
C2939      C2940   1.410       .  A
C2939      C2944   1.394       .  A
C2939     Br2946   1.932       .  S
C2940      C2941   1.406       .  A
C2941      C2942   1.401       .  A
C2941     Br2948   1.925       .  S
C2942      C2943   1.405       .  A
C2942     Br2947   1.927       .  S
C2943      C2944   1.406       .  A
C2944     Br2945   1.935       .  S
C2949      C4086   1.407   1_545  A
C2949      C2954   1.396       .  A
C2949     Br2956   1.934       .  S
C2950      C4085   1.407       .  A
C2950      C2951   1.408       .  A
C2951      C2952   1.406       .  A
C2951     Br2958   1.926       .  S
C2952      C4089   1.408       .  A
C2952     Br2957   1.927       .  S
C2953      C4088   1.408       .  A
C2953      C2954   1.410   1_565  A
C2954     Br2955   1.935       .  S
C2959      C4096   1.406       .  A
C2959      C2964   1.406       .  A
C2959     Br2966   1.923       .  S
C2960      C4095   1.406       .  A
C2960      C2961   1.413       .  A
C2961      C2962   1.396       .  A
C2961     Br2968   1.935       .  S
C2962      C4099   1.405       .  A
C2962     Br2967   1.932       .  S
C2963      C4098   1.405       .  A
C2963      C2964   1.410       .  A
C2964     Br2965   1.928       .  S
C2969      C2970   1.408       .  A
C2969      C2974   1.408       .  A
C2969     Br2976   1.929       .  S
C2970      C2971   1.409       .  A
C2971      C2972   1.409       .  A
C2971     Br2978   1.929       .  S
C2972      C2973   1.411       .  A
C2972     Br2977   1.929       .  S
C2973      C2974   1.412       .  A
C2974     Br2975   1.929       .  S
C2979      C2980   1.411       .  A
C2979      C2984   1.396       .  A
C2979     Br2986   1.935       .  S
C2980      C2981   1.407       .  A
C2981      C2982   1.404       .  A
C2981     Br2988   1.924       .  S
C2982      C2983   1.406       .  A
C2982     Br2987   1.926       .  S
C2983      C2984   1.408       .  A
C2984     Br2985   1.936       .  S
C2989      C2990   1.408       .  A
C2989      C2994   1.394       .  A
C2989     Br2996   1.935       .  S
C2990      C2991   1.408       .  A
C2991      C2992   1.407       .  A
C2991     Br2998   1.926       .  S
C2992      C2993   1.408       .  A
C2992     Br2997   1.925       .  S
C2993      C2994   1.409       .  A
C2994     Br2995   1.936       .  S
C2999      C3000   1.412   1_545  A
C2999      C3004   1.405       .  A
C2999     Br3006   1.931       .  S
C3000      C4137   1.415       .  A
C3001      C4136   1.415       .  A
C3001      C3002   1.410       .  A
C3001     Br3008   1.930       .  S
C3002      C4139   1.412       .  A
C3002     Br3007   1.930       .  S
C3003      C4138   1.412       .  A
C3003      C3004   1.411   1_565  A
C3004     Br3005   1.931       .  S
C3009      C3010   1.409   1_655  A
C3009      C3014   1.410       .  A
C3009     Br3016   1.928       .  S
C3011      C3012   1.411       .  A
C3011     Br3018   1.928       .  S
C3012     Br3017   1.928       .  S
C3013      C3014   1.413   1_455  A
C3014     Br3015   1.924       .  S
C3019      C3020   1.407       .  A
C3019      C3024   1.407       .  A
C3019     Br3026   1.927       .  S
C3021      C3022   1.395       .  A
C3021     Br3028   1.935   1_455  S
C3022     Br3027   1.935   1_455  S
C3023      C3024   1.410       .  A
C3024     Br3025   1.926       .  S
C3029      C3030   1.411       .  A
C3029      C3034   1.394       .  A
C3029     Br3036   1.936       .  S
C3031      C3032   1.402       .  A
C3031     Br3038   1.925       .  S
C3032     Br3037   1.927       .  S
C3033      C3034   1.406       .  A
C3034     Br3035   1.933       .  S
C3039      C4176   1.414       .  A
C3039      C3044   1.413       .  A
C3039     Br3046   1.931       .  S
C3040      C4175   1.414       .  A
C3041      C3042   1.413       .  A
C3041     Br3048   1.933       .  S
C3042     Br3047   1.930       .  S
C3043      C4180   1.414   1_455  A
C3044      C4179   1.414   1_655  A
C3044     Br3045   1.930       .  S
C3049      C3050   1.426       .  A
C3049      C3054   1.414       .  A
C3049     Br3056   1.934       .  S
C3050      C3051   1.424       .  A
C3051      C3052   1.410       .  A
C3051     Br3058   1.934       .  S
C3052      C3053   1.405       .  A
C3052     Br3057   1.932       .  S
C3053      C3054   1.408       .  A
C3054     Br3055   1.933       .  S
C3059      C3060   1.422   1_556  A
C3059      C3064   1.434       .  A
C3059     Br3066   1.930       .  S
C3060      C3061   1.425       .  A
C3061      C3062   1.438       .  A
C3061     Br3068   1.931       .  S
C3062      C3063   1.426       .  A
C3062     Br3067   1.930       .  S
C3063      C3064   1.424   1_554  A
C3064     Br3065   1.930       .  S
C3069      C3070   1.430   1_556  A
C3069      C3074   1.441       .  A
C3069     Br3076   1.931       .  S
C3070      C3071   1.428       .  A
C3071      C3072   1.437       .  A
C3071     Br3078   1.928       .  S
C3072      C3073   1.425       .  A
C3072     Br3077   1.932       .  S
C3073      C3074   1.429   1_554  A
C3074     Br3075   1.933       .  S
C3079      C4216   1.407       .  A
C3079      C3084   1.412       .  A
C3079     Br3086   1.933       .  S
C3080      C4215   1.408   1_565  A
C3080      C3081   1.406       .  A
C3081      C3082   1.412       .  A
C3081     Br3088   1.934       .  S
C3082      C3083   1.424       .  A
C3082     Br3087   1.933       .  S
C3083      C4220   1.421   1_565  A
C3084      C4219   1.421       .  A
C3084     Br3085   1.931       .  S
C3089      C3094   1.410       .  A
C3089     Br3096   1.932       .  S
C3090      C3091   1.415       .  A
C3091      C3092   1.415       .  A
C3091     Br3098   1.931       .  S
C3092      C3093   1.412       .  A
C3092     Br3097   1.929       .  S
C3094     Br3095   1.929   1_455  S
C3099      C3100   1.425   1_556  A
C3099      C3104   1.437       .  A
C3099     Br3106   1.930       .  S
C3101      C3102   1.439       .  A
C3101     Br3108   1.925   1_455  S
C3102     Br3107   1.930   1_455  S
C3103      C3104   1.425   1_554  A
C3104     Br3105   1.930       .  S
C3109      C3114   1.437       .  A
C3109     Br3116   1.930   1_455  S
C3110      C3111   1.424       .  A
C3111      C3112   1.438       .  A
C3111     Br3118   1.927       .  S
C3112      C3113   1.426       .  A
C3112     Br3117   1.929       .  S
C3114     Br3115   1.929   1_455  S
C3119      C3124   1.415       .  A
C3119     Br3126   1.929   1_455  S
C3120      C4257   1.413       .  A
C3121      C4256   1.413   1_545  A
C3121      C3122   1.415       .  A
C3121     Br3128   1.930       .  S
C3122      C4259   1.414   1_545  A
C3122     Br3127   1.928       .  S
C3123      C4258   1.414       .  A
C3123      C3749   1.497       .  S
C3124     Br3125   1.932       .  S
C3129      C3130   1.428       .  A
C3129      C3134   1.414       .  A
C3129     Br3136   1.934       .  S
C3130      C3131   1.429       .  A
C3131      C3132   1.413       .  A
C3131     Br3138   1.935       .  S
C3132      C3133   1.404       .  A
C3132     Br3137   1.933       .  S
C3133      C3134   1.405       .  A
C3134     Br3135   1.934       .  S
C3139      C3140   1.425       .  A
C3139      C3144   1.415       .  A
C3139     Br3146   1.933       .  S
C3140      C4277   1.426   1_545  A
C3141      C4276   1.426       .  A
C3141      C3142   1.412       .  A
C3141     Br3148   1.933       .  S
C3142      C4279   1.405       .  A
C3142     Br3147   1.934       .  S
C3143      C4278   1.405   1_545  A
C3143      C3144   1.407       .  A
C3144     Br3145   1.932       .  S
C3149      C3150   1.423       .  A
C3149      C3154   1.438       .  A
C3149     Br3156   1.927       .  S
C3150      C3151   1.426       .  A
C3151      C3152   1.438       .  A
C3151     Br3158   1.927       .  S
C3152      C3153   1.422       .  A
C3152     Br3157   1.930       .  S
C3153      C3154   1.424       .  A
C3154     Br3155   1.928       .  S
C3159      C3160   1.435       .  A
C3159      C3164   1.445       .  A
C3159     Br3166   1.934       .  S
C3160      C3161   1.435       .  A
C3161      C3162   1.447       .  A
C3161     Br3168   1.933       .  S
C3162      C3163   1.433       .  A
C3162     Br3167   1.933       .  S
C3163      C3164   1.431       .  A
C3164     Br3165   1.933       .  S
C3169      C3170   1.421   1_455  A
C3169      C3174   1.411       .  A
C3169     Br3176   1.933       .  S
C3171      C3172   1.412       .  A
C3171     Br3178   1.937       .  S
C3172     Br3177   1.933       .  S
C3173      C3174   1.408   1_655  A
C3174     Br3175   1.932       .  S
C3179      C4316   1.431       .  A
C3179      C3184   1.440       .  A
C3179     Br3186   1.932   1_545  S
C3180      C4315   1.431       .  A
C3180      C3181   1.431       .  A
C3181      C3182   1.442       .  A
C3181     Br3188   1.930       .  S
C3182      C3183   1.427       .  A
C3182     Br3187   1.927       .  S
C3183      C4320   1.425       .  A
C3183      C3720   1.565       .  S
C3184      C4319   1.425       .  A
C3184     Br3185   1.931   1_545  S
C3189      C4326   1.429       .  A
C3189      C3194   1.442       .  A
C3189     Br3196   1.930       .  S
C3190      C4325   1.430       .  A
C3190      C3191   1.430       .  A
C3191      C3192   1.443       .  A
C3191     Br3198   1.928       .  S
C3192      C3193   1.425       .  A
C3192     Br3197   1.927       .  S
C3193      C4330   1.426       .  A
C3193      C3719   1.564       .  S
C3194      C4329   1.426       .  A
C3194     Br3195   1.929       .  S
C3199      C3204   1.413       .  A
C3199     Br3206   1.936       .  S
C3200      C4337   1.428       .  A
C3201      C4336   1.429       .  A
C3201      C3202   1.418       .  A
C3201     Br3208   1.933       .  S
C3202      C4339   1.406       .  A
C3202     Br3207   1.932       .  S
C3203      C4338   1.406       .  A
C3204     Br3205   1.935       .  S
C3209      C3210   1.409       .  A
C3209      C3214   1.415       .  A
C3209     Br3216   1.930       .  S
C3210      C3211   1.409       .  A
C3211      C3212   1.409       .  A
C3211     Br3218   1.930       .  S
C3212      C3213   1.413       .  A
C3212     Br3217   1.931       .  S
C3213      C3214   1.420       .  A
C3214     Br3215   1.932       .  S
C3219      C3220   1.417       .  A
C3219      C3224   1.411       .  A
C3219     Br3226   1.934       .  S
C3220      C3221   1.417       .  A
C3221      C3222   1.412       .  A
C3221     Br4364   1.926       .  S
C3222      C3223   1.408       .  A
C3222     Br3227   1.930       .  S
C3223      C3224   1.409       .  A
C3224     Br3225   1.928       .  S
Br3228     C4357   1.926       .  S
C3229      C3234   1.412       .  A
C3229     Br3236   1.929       .  S
C3230      C3231   1.418       .  A
C3231      C3232   1.412       .  A
C3231     Br3238   1.931       .  S
C3232      C3233   1.408       .  A
C3232     Br3237   1.931       .  S
C3234     Br3235   1.932       .  S
C3239      C3240   1.407       .  A
C3239      C3244   1.403       .  A
C3239     Br3246   1.927       .  S
C3240      C3241   1.407       .  A
C3241      C3242   1.394       .  A
C3241     Br3248   1.935       .  S
C3242      C3243   1.409       .  A
C3242     Br3247   1.935       .  S
C3243      C3244   1.405       .  A
C3244     Br3245   1.926       .  S
C3249      C3250   1.404       .  A
C3249      C3254   1.402       .  A
C3249     Br3256   1.923       .  S
C3250      C3251   1.405       .  A
C3251      C3252   1.393       .  A
C3251     Br3258   1.934       .  S
C3252      C3253   1.409       .  A
C3252     Br3257   1.934       .  S
C3253      C3254   1.404       .  A
C3254     Br3255   1.924       .  S
C3259      C3264   1.412       .  A
C3259     Br3266   1.932       .  S
C3260      C4397   1.417       .  A
C3261      C4396   1.417       .  A
C3261      C3262   1.415       .  A
C3261     Br3268   1.925       .  S
C3262      C3263   1.410       .  A
C3262     Br3267   1.930       .  S
C3264     Br3265   1.930       .  S
C3269      C4406   1.405   1_545  A
C3269      C3274   1.393       .  A
C3269     Br3276   1.933       .  S
C3270      C4405   1.405       .  A
C3270      C3271   1.407       .  A
C3271      C3272   1.400       .  A
C3271     Br3278   1.929       .  S
C3272      C4409   1.404       .  A
C3272     Br3277   1.925       .  S
C3273      C4408   1.404       .  A
C3273      C3274   1.409   1_565  A
C3274     Br3275   1.933       .  S
C3279      C4416   1.408       .  A
C3279      C3284   1.399       .  A
C3279     Br3286   1.926       .  S
C3280      C4415   1.408       .  A
C3280      C3281   1.412       .  A
C3281      C3282   1.391       .  A
C3281     Br3288   1.935       .  S
C3282      C4419   1.403       .  A
C3282     Br3287   1.934       .  S
C3283      C4418   1.403       .  A
C3283      C3284   1.405       .  A
C3284     Br3285   1.929       .  S
C3289      C3290   1.405       .  A
C3289      C3294   1.412       .  A
C3289     Br3296   1.932       .  S
C3290      C3291   1.407       .  A
C3291      C3292   1.411       .  A
C3291     Br3298   1.935       .  S
C3292      C3293   1.422       .  A
C3292     Br3297   1.933       .  S
C3293      C3294   1.425       .  A
C3294     Br3295   1.935       .  S
C3299      C3300   1.413       .  A
C3299      C3304   1.411       .  A
C3299     Br3306   1.931       .  S
C3300      C3301   1.411       .  A
C3301      C3302   1.410       .  A
C3301     Br3308   1.929       .  S
C3302      C3303   1.411       .  A
C3302     Br3307   1.929       .  S
C3303      C3304   1.411       .  A
C3304     Br3305   1.929       .  S
C3309      C4446   1.407       .  A
C3309      C3314   1.411       .  A
C3309     Br3316   1.933       .  S
C3310      C4445   1.407   1_545  A
C3310      C3311   1.404       .  A
C3311      C3312   1.409       .  A
C3311     Br3318   1.934       .  S
C3312      C3313   1.425   1_545  A
C3312     Br3317   1.933       .  S
C3313      C4450   1.422       .  A
C3314      C4449   1.422       .  A
C3314     Br3315   1.934       .  S
C3319      C3320   1.407       .  A
C3319      C3324   1.404       .  A
C3319     Br3326   1.926       .  S
C3320      C3321   1.407       .  A
C3321      C3322   1.395       .  A
C3321     Br3328   1.935       .  S
C3322      C3323   1.411       .  A
C3322     Br3327   1.935       .  S
C3323      C3324   1.407       .  A
C3324     Br3325   1.927       .  S
C3329      C3330   1.408       .  A
C3329      C3334   1.408       .  A
C3329     Br3336   1.926       .  S
C3330      C3331   1.409       .  A
C3331      C3332   1.397       .  A
C3331     Br3338   1.935       .  S
C3332      C3333   1.409       .  A
C3332     Br3337   1.936       .  S
C3333      C3334   1.408       .  A
C3334     Br3335   1.926       .  S
C3339      C4476   1.406       .  A
C3339      C3344   1.406       .  A
C3339     Br3346   1.930       .  S
C3340      C4475   1.406       .  A
C3340      C3341   1.409       .  A
C3341      C3342   1.409       .  A
C3341     Br3348   1.931       .  S
C3342      C3343   1.415       .  A
C3342     Br3347   1.931       .  S
C3343      C4480   1.414       .  A
C3344      C4479   1.414       .  A
C3344     Br3345   1.930       .  S
C3349      C3354   1.415       .  A
C3349     Br3356   1.933   1_455  S
C3350      C3351   1.406       .  A
C3351      C3352   1.415       .  A
C3351     Br3358   1.933       .  S
C3352      C3353   1.428       .  A
C3352     Br3357   1.934       .  S
C3354     Br3355   1.936   1_455  S
C3359      C3360   1.412       .  A
C3359      C3364   1.412       .  A
C3359     Br3366   1.932       .  S
C3361      C3362   1.412       .  A
C3361     Br3368   1.933       .  S
C3362     Br3367   1.931       .  S
C3363      C3364   1.417       .  A
C3364     Br3365   1.930       .  S
C3369      C4506   1.427       .  A
C3369      C3374   1.417       .  A
C3369     Br3376   1.933       .  S
C3370      C4505   1.427       .  A
C3371      C3372   1.410       .  A
C3371     Br3378   1.935   1_455  S
C3372     Br3377   1.936   1_455  S
C3373      C4510   1.407       .  A
C3374      C4509   1.407       .  A
C3374     Br3375   1.932       .  S
C3379      C3380   1.405       .  A
C3379      C3384   1.405       .  A
C3379     Br3386   1.927       .  S
C3381      C3382   1.396       .  A
C3381     Br3388   1.934       .  S
C3382     Br3387   1.936   1_455  S
C3383      C3384   1.410       .  A
C3384     Br3385   1.927       .  S
C3389      C3390   1.406       .  A
C3389      C3394   1.395       .  A
C3389     Br3396   1.933       .  S
C3391      C3392   1.406       .  A
C3391     Br3398   1.927       .  S
C3392     Br3397   1.925       .  S
C3393      C3394   1.410       .  A
C3394     Br3395   1.936       .  S
C3399      C4536   1.416       .  A
C3399      C3404   1.416       .  A
C3399     Br3406   1.929       .  S
C3400      C4535   1.416       .  A
C3401      C3402   1.415       .  A
C3401     Br3408   1.931       .  S
C3402     Br3407   1.930       .  S
C3403      C4540   1.414   1_455  A
C3404      C4539   1.414   1_655  A
C3404     Br3405   1.930       .  S
N3409      C3414   1.351       .  A
N3409      C3413   1.357       .  A
N3409      H3441   1.040       .  S
N3410      C3417   1.353       .  A
N3410      C3418   1.348       .  A
N3411      C3416   1.357       .  A
N3411      C3415   1.348       .  A
N3411      H3442   1.039       .  S
N3412      C3419   1.345       .  A
N3412      C3420   1.353       .  A
C3413      C3421   1.383       .  A
C3413      C3429   1.412       .  A
C3414      C3430   1.419       .  A
C3414      C3422   1.391       .  A
C3415      C3423   1.386       .  A
C3416      C3424   1.387       .  A
C3417      C3425   1.383       .  A
C3418      C3432   1.412       .  A
C3418      C3426   1.389       .  A
C3419      C3427   1.388       .  A
C3420      C3428   1.385       .  A
C3420      C3431   1.419   1_655  A
C3421      C3422   1.375       .  A
C3421      H3433   1.082       .  S
C3422      H3434   1.082       .  S
C3423      C3424   1.379       .  A
C3423      H3435   1.082       .  S
C3424      H3436   1.082       .  S
C3425      C3426   1.371       .  A
C3425      H3437   1.082       .  S
C3426      H3438   1.082       .  S
C3427      C3428   1.378       .  A
C3427      H3439   1.083       .  S
C3428      H3440   1.082       .  S
C3429      C4509   1.497       .  S
C3430      C4529   1.476       .  S
C3431      C4539   1.511       .  S
C3432      C4519   1.474       .  S
N3443      C3448   1.358       .  A
N3443      C3447   1.350       .  A
N3443      H3475   1.040       .  S
N3444      C3451   1.342       .  A
N3444      C3452   1.351       .  A
N3445      C3450   1.345       .  A
N3445      C3449   1.357       .  A
N3445      H3476   1.040       .  S
N3446      C3453   1.355       .  A
N3446      C3454   1.349       .  A
C3447      C3455   1.391       .  A
C3447      C3463   1.419       .  A
C3448      C3464   1.414       .  A
C3448      C3456   1.383       .  A
C3449      C3457   1.387   1_455  A
C3449      C3466   1.419       .  A
C3450      C3458   1.386   1_455  A
C3451      C3459   1.387       .  A
C3452      C3466   1.414       .  A
C3452      C3460   1.385       .  A
C3453      C3461   1.383       .  A
C3453      C3464   1.411       .  A
C3454      C3462   1.389       .  A
C3454      C3465   1.415       .  A
C3455      C3456   1.377       .  A
C3455      H3467   1.082       .  S
C3456      H3468   1.082       .  S
C3457      C3458   1.378       .  A
C3457      H3469   1.082       .  S
C3458      H3470   1.082       .  S
C3459      C3460   1.377       .  A
C3459      H3471   1.082       .  S
C3460      H3472   1.082       .  S
C3461      C3462   1.372       .  A
C3461      H3473   1.082       .  S
C3462      H3474   1.082       .  S
C3463      C4516   1.473       .  S
C3464      C4486   1.502       .  S
C3465      C4526   1.472       .  S
C3466      C4499   1.507       .  S
N3477      C3482   1.354       .  A
N3477      C3481   1.351       .  A
N3477      H3509   1.040       .  S
N3478      C3485   1.342       .  A
N3478      C3486   1.348       .  A
N3479      C3484   1.345       .  A
N3479      C3483   1.354       .  A
N3479      H3510   1.039       .  S
N3480      C3487   1.353       .  A
N3480      C3488   1.351       .  A
C3481      C3489   1.390       .  A
C3481      C3497   1.415       .  A
C3482      C3490   1.385       .  A
C3483      C3491   1.388       .  A
C3484      C3499   1.406       .  A
C3484      C3492   1.386       .  A
C3485      C3497   1.403       .  A
C3485      C3493   1.386       .  A
C3486      C3500   1.413   1_565  A
C3486      C3494   1.387       .  A
C3487      C3495   1.384       .  A
C3487      C3498   1.411       .  A
C3488      C3496   1.387       .  A
C3488      C3499   1.414       .  A
C3489      C3490   1.371       .  A
C3489      H3501   1.082       .  S
C3490      H3502   1.082       .  S
C3491      C3492   1.379       .  A
C3491      H3503   1.082       .  S
C3492      H3504   1.082       .  S
C3493      C3494   1.378       .  A
C3493      H3505   1.082       .  S
C3494      H3506   1.082       .  S
C3495      C3496   1.374       .  A
C3495      H3507   1.082       .  S
C3496      H3508   1.082       .  S
C3497      C4459   1.473       .  S
C3498      C4446   1.491       .  S
C3499      C4466   1.477       .  S
C3500      C4479   1.496       .  S
N3511      C3516   1.354       .  A
N3511      C3515   1.350       .  A
N3511      H3543   1.039       .  S
N3512      C3519   1.344       .  A
N3512      C3520   1.349       .  A
N3513      C3518   1.346       .  A
N3513      C3517   1.356       .  A
N3513      H3544   1.037       .  S
N3514      C3521   1.354       .  A
N3514      C3522   1.351       .  A
C3515      C3523   1.390       .  A
C3515      C3531   1.416       .  A
C3516      C3532   1.411       .  A
C3516      C3524   1.384       .  A
C3517      C3525   1.387       .  A
C3517      C3534   1.419       .  A
C3518      C3533   1.410       .  A
C3518      C3526   1.386       .  A
C3519      C3531   1.406       .  A
C3519      C3527   1.387       .  A
C3520      C3534   1.411       .  A
C3520      C3528   1.386       .  A
C3521      C3529   1.385       .  A
C3521      C3532   1.412       .  A
C3522      C3530   1.388       .  A
C3522      C3533   1.414       .  A
C3523      C3524   1.376       .  A
C3523      H3535   1.082       .  S
C3524      H3536   1.082       .  S
C3525      C3526   1.380       .  A
C3525      H3537   1.082       .  S
C3526      H3538   1.082       .  S
C3527      C3528   1.374       .  A
C3527      H3539   1.082       .  S
C3528      H3540   1.082       .  S
C3529      C3530   1.369       .  A
C3529      H3541   1.082       .  S
C3530      H3542   1.082       .  S
C3531      C4456   1.472       .  S
C3532      C4426   1.494       .  S
C3533      C4469   1.477       .  S
C3534      C4436   1.498       .  S
N3545      C3550   1.341       .  A
N3545      C3549   1.354       .  A
N3545      H3577   1.041       .  S
N3546      C3553   1.354       .  A
N3546      C3554   1.342       .  A
N3547      C3552   1.361       .  A
N3547      C3551   1.349       .  A
N3547      H3578   1.042       .  S
N3548      C3555   1.346       .  A
N3548      C3556   1.354       .  A
C3549      C3557   1.384       .  A
C3550      C3566   1.403       .  A
C3550      C3558   1.389       .  A
C3551      C3559   1.391       .  A
C3551      C3568   1.418       .  A
C3552      C3567   1.418       .  A
C3552      C3560   1.384       .  A
C3553      C3565   1.411       .  A
C3553      C3561   1.381       .  A
C3554      C3568   1.412       .  A
C3554      C3562   1.392       .  A
C3555      C3563   1.389       .  A
C3555      C3566   1.412       .  A
C3556      C3564   1.384       .  A
C3557      C3558   1.374       .  A
C3557      H3569   1.082       .  S
C3558      H3570   1.082       .  S
C3559      C3560   1.378       .  A
C3559      H3571   1.082       .  S
C3560      H3572   1.082       .  S
C3561      C3562   1.377       .  A
C3561      H3573   1.082       .  S
C3562      H3574   1.082       .  S
C3563      C3564   1.376       .  A
C3563      H3575   1.083       .  S
C3564      H3576   1.082       .  S
C3565      C4399   1.501       .  S
C3566      C4419   1.462       .  S
C3567      C4536   1.516       .  S
C3568      C4409   1.467       .  S
N3579      C3584   1.342       .  A
N3579      C3583   1.352       .  A
N3579      H3611   1.040       .  S
N3580      C3587   1.352       .  A
N3580      C3588   1.342       .  A
N3581      C3586   1.358       .  A
N3581      C3585   1.349       .  A
N3581      H3612   1.041       .  S
N3582      C3589   1.346       .  A
N3582      C3590   1.352       .  A
C3583      C3591   1.386       .  A
C3584      C3600   1.402       .  A
C3584      C3592   1.387       .  A
C3585      C3593   1.391       .  A
C3585      C3602   1.417       .  A
C3586      C3601   1.415   1_655  A
C3586      C3594   1.384       .  A
C3587      C3599   1.410       .  A
C3587      C3595   1.382       .  A
C3588      C3602   1.410       .  A
C3588      C3596   1.391       .  A
C3589      C3597   1.388       .  A
C3589      C3600   1.410       .  A
C3590      C3598   1.384       .  A
C3591      C3592   1.376       .  A
C3591      H3603   1.082       .  S
C3592      H3604   1.082       .  S
C3593      C3594   1.378       .  A
C3593      H3605   1.082       .  S
C3594      H3606   1.082       .  S
C3595      C3596   1.376       .  A
C3595      H3607   1.082       .  S
C3596      H3608   1.082       .  S
C3597      C3598   1.372       .  A
C3597      H3609   1.081       .  S
C3598      H3610   1.082       .  S
C3599      C4369   1.495       .  S
C3600      C4386   1.464       .  S
C3601      C4496   1.505       .  S
C3602      C4376   1.469       .  S
N3613      C3618   1.356       .  A
N3613      C3617   1.345       .  A
N3613      H3645   1.036       .  S
N3614      C3621   1.346       .  A
N3614      C3622   1.353       .  A
N3615      C3620   1.346       .  A
N3615      C3619   1.355       .  A
N3615      H3646   1.040       .  S
N3616      C3623   1.350       .  A
N3616      C3624   1.342       .  A
C3617      C3625   1.388       .  A
C3617      C3633   1.412       .  A
C3618      C3634   1.419       .  A
C3618      C3626   1.386       .  A
C3619      C3627   1.382       .  A
C3619      C3636   1.405       .  A
C3620      C3635   1.414       .  A
C3620      C3628   1.392       .  A
C3621      C3633   1.413       .  A
C3621      C3629   1.392       .  A
C3622      C3636   1.401       .  A
C3622      C3630   1.380       .  A
C3623      C3631   1.385       .  A
C3623      C3634   1.412       .  A
C3624      C3632   1.388   1_545  A
C3624      C3635   1.407       .  A
C3625      C3626   1.381       .  A
C3625      H3637   1.083       .  S
C3626      H3638   1.082       .  S
C3627      C3628   1.372       .  A
C3627      H3639   1.082       .  S
C3628      H3640   1.082       .  S
C3629      C3630   1.365       .  A
C3629      H3641   1.081       .  S
C3630      H3642   1.082       .  S
C3631      C3632   1.377   1_545  A
C3631      H3643   1.082       .  S
C3632      H3644   1.082       .  S
C3633      C4416   1.469       .  S
C3634      C4359   1.497       .  S
C3635      C4406   1.464   1_545  S
C3636      C4476   1.488       .  S
N3647      C3652   1.354       .  A
N3647      C3651   1.344       .  A
N3647      H3679   1.028       .  S
N3648      C3655   1.349       .  A
N3648      C3656   1.354       .  A
N3649      C3654   1.351       .  A
N3649      C3653   1.359       .  A
N3649      H3680   1.032       .  S
N3650      C3657   1.352       .  A
N3650      C3658   1.342       .  A
C3651      C3659   1.386       .  A
C3651      C3667   1.403       .  A
C3652      C3668   1.414       .  A
C3652      C3660   1.387       .  A
C3653      C3661   1.384       .  A
C3653      C3670   1.415       .  A
C3654      C3669   1.419       .  A
C3654      C3662   1.390       .  A
C3655      C3667   1.415       .  A
C3655      C3663   1.389       .  A
C3656      C3670   1.408       .  A
C3656      C3664   1.383       .  A
C3657      C3665   1.383       .  A
C3657      C3668   1.412       .  A
C3658      C3666   1.389       .  A
C3658      C3669   1.410       .  A
C3659      C3660   1.375       .  A
C3659      H3671   1.082       .  S
C3660      H3672   1.082       .  S
C3661      C3662   1.374       .  A
C3661      H3673   1.082       .  S
C3662      H3674   1.082       .  S
C3663      C3664   1.368       .  A
C3663      H3675   1.081       .  S
C3664      H3676   1.082       .  S
C3665      C3666   1.378       .  A
C3665      H3677   1.082       .  S
C3666      H3678   1.082       .  S
C3667      C4389   1.467       .  S
C3668      C4346   1.496       .  S
C3669      C4379   1.470       .  S
C3670      C4439   1.498       .  S
O3681     Cu3689   2.016       .  S
O3681      C3691   1.277       .  A
O3682     Cu3689   2.019       .  S
O3682      C3692   1.277       .  A
O3683     Cu3689   2.100       .  S
O3683      C3693   1.288       .  A
O3684      C3694   1.291       .  A
O3686     Cu3690   2.112       .  S
O3687     Cu3690   2.040       .  S
O3688     Cu3690   2.048       .  S
C3691      C4396   1.500       .  S
C3692      C4336   1.517       .  S
C3693      C4316   1.569       .  S
C3694      C4326   1.569       .  S
O3695     Cu3703   2.032       .  S
O3695      C3705   1.280       .  A
O3696     Cu3703   2.021       .  S
O3696      C3706   1.279       .  A
O3697     Cu3703   2.101       .  S
O3697      C3707   1.288       .  A
O3698      C3708   1.290       .  A
O3699      C3708   1.290       .  A
O3700     Cu3704   2.111       .  S
O3700      C3707   1.290       .  A
O3701     Cu3704   2.006   1_455  S
O3701      C3706   1.276   1_455  A
O3702     Cu3704   2.021       .  S
O3702      C3705   1.278       .  A
Cu3703    Cu3704   2.348       .  S
C3705      C4366   1.496       .  S
C3706      C4306   1.500       .  S
C3707      C4286   1.554       .  S
C3708      C4299   1.579       .  S
O3709     Cu3717   2.108       .  S
O3709      C3719   1.289       .  A
O3710     Cu3717   2.117       .  S
O3710      C3720   1.291       .  A
O3711     Cu3717   2.030       .  S
O3712     Cu3717   2.038       .  S
O3712      C3722   1.280       .  A
O3713     Cu3718   2.018       .  S
O3714     Cu3718   2.011       .  S
O3714      C3721   1.278       .  A
O3715     Cu3718   2.101       .  S
O3716     Cu3718   2.117       .  S
C3721      C4356   1.496       .  S
C3722      C4276   1.510       .  S
O3723     Cu3731   2.016       .  S
O3723      C3733   1.277       .  A
O3724     Cu3731   2.018       .  S
O3724      C3734   1.277       .  A
O3725     Cu3731   2.099       .  S
O3725      C3735   1.289       .  A
O3726     Cu3731   2.124       .  S
O3726      C3736   1.291       .  A
O3727     Cu3732   2.105       .  S
O3727      C3736   1.288       .  A
O3728     Cu3732   2.099       .  S
O3728      C3735   1.288       .  A
O3729     Cu3732   2.021       .  S
O3729      C3734   1.279       .  A
O3730     Cu3732   2.026       .  S
O3730      C3733   1.278       .  A
Cu3731    Cu3732   2.346       .  S
C3733      C4266   1.511       .  S
C3734      C4349   1.491       .  S
C3735      C4289   1.550       .  S
C3736      C4296   1.583       .  S
O3737     Cu3745   2.098       .  S
O3737      C3747   1.288       .  A
O3738      C3748   1.287       .  A
O3739     Cu3745   2.052   1_556  S
O3739      C3749   1.283       .  A
O3740     Cu3745   2.051       .  S
O3740      C3750   1.282       .  A
O3741     Cu3746   2.005       .  S
O3742     Cu3746   2.014   1_556  S
O3744     Cu3746   2.100       .  S
C3747      C4249   1.554       .  S
C3748      C4236   1.556       .  S
C3750      C4506   1.515       .  S
O3751     Cu3759   2.099       .  S
O3752     Cu3759   2.087       .  S
O3753     Cu3759   2.023       .  S
O3754     Cu3759   2.016   1_556  S
O3755     Cu3760   2.030   1_556  S
O3755      C3764   1.279       .  A
O3756     Cu3760   2.032       .  S
O3756      C3763   1.279       .  A
O3757     Cu3760   2.108       .  S
O3757      C3762   1.290       .  A
O3758     Cu3760   2.099       .  S
O3758      C3761   1.289       .  A
C3761      C4239   1.555       .  S
C3762      C4246   1.553       .  S
C3763      C4489   1.518       .  S
C3764      C4226   1.494       .  S
O3765     Cu3773   2.023       .  S
O3765      C3775   1.279       .  A
O3766     Cu3773   2.032   1_556  S
O3766      C3776   1.280       .  A
O3767      C3777   1.287       .  A
O3768     Cu3773   2.096       .  S
O3768      C3778   1.287       .  A
O3769     Cu3774   2.103       .  S
O3769      C3778   1.289       .  A
O3770      C3777   1.288       .  A
O3771     Cu3774   2.016   1_556  S
O3771      C3776   1.277       .  A
O3772     Cu3774   2.010       .  S
O3772      C3775   1.276       .  A
Cu3773    Cu3774   2.347       .  S
C3775      C4449   1.502       .  S
C3776      C4219   1.503       .  S
C3777      C4199   1.551       .  S
C3778      C4206   1.564       .  S
O3779     Cu3787   2.093       .  S
O3779      C3789   1.287       .  A
O3780     Cu3787   2.096       .  S
O3780      C3790   1.288       .  A
O3781     Cu3787   2.019   1_556  S
O3781      C3791   1.278       .  A
O3782     Cu3787   2.023       .  S
O3782      C3792   1.278       .  A
O3783     Cu3788   2.017       .  S
O3783      C3792   1.278       .  A
O3784     Cu3788   2.026   1_556  S
O3784      C3791   1.278       .  A
O3785     Cu3788   2.098       .  S
O3785      C3790   1.288       .  A
O3786     Cu3788   2.091       .  S
O3786      C3789   1.288       .  A
Cu3787    Cu3788   2.346       .  S
C3789      C4196   1.549       .  S
C3790      C4209   1.561       .  S
C3791      C4186   1.508       .  S
C3792      C4429   1.504       .  S
N3793      C3798   1.345       .  A
N3793      C3797   1.359       .  A
N3793      H3825   1.039       .  S
N3794      C3801   1.350       .  A
N3794      C3802   1.342       .  A
N3795      C3799   1.350       .  A
N3795      H3826   1.040       .  S
N3796      C3803   1.348       .  A
C3797      C3805   1.384       .  A
C3797      C3813   1.418       .  A
C3798      C3814   1.413       .  A
C3798      C3806   1.388       .  A
C3799      C3816   1.419       .  A
C3800      C3808   1.383       .  A
C3801      C3809   1.385       .  A
C3802      C3816   1.406       .  A
C3802      C3810   1.388       .  A
C3803      C3814   1.414       .  A
C3804      C3812   1.384       .  A
C3804      C3815   1.413   1_565  A
C3805      C3806   1.379       .  A
C3805      H3817   1.082       .  S
C3806      H3818   1.081       .  S
C3807      C3808   1.375   1_655  A
C3807      H3819   1.081       .  S
C3808      H3820   1.082       .  S
C3809      C3810   1.373       .  A
C3809      H3821   1.082       .  S
C3810      H3822   1.082       .  S
C3811      C3812   1.377       .  A
C3811      H3823   1.082       .  S
C3812      H3824   1.082       .  S
C3813      C4256   1.506       .  S
C3814      C4156   1.473       .  S
C3815      C4179   1.508       .  S
C3816      C4169   1.470       .  S
N3827      C3832   1.359       .  A
N3827      C3831   1.346       .  A
N3827      H3859   1.030       .  S
N3828      C3835   1.350       .  A
N3829      C3834   1.351       .  A
N3829      H3860   1.038       .  S
N3830      C3837   1.349       .  A
N3830      C3838   1.342       .  A
C3831      C3839   1.386       .  A
C3831      C3847   1.414       .  A
C3832      C3848   1.423       .  A
C3832      C3840   1.386       .  A
C3833      C3841   1.382       .  A
C3833      C3850   1.411   1_655  A
C3834      C3849   1.420       .  A
C3835      C3847   1.418       .  A
C3836      C3850   1.409       .  A
C3836      C3844   1.382       .  A
C3837      C3845   1.386       .  A
C3837      C3848   1.413       .  A
C3838      C3846   1.388       .  A
C3838      C3849   1.406       .  A
C3839      C3840   1.382       .  A
C3839      H3851   1.082       .  S
C3840      H3852   1.082       .  S
C3841      C3842   1.371       .  A
C3841      H3853   1.082       .  S
C3842      H3854   1.081       .  S
C3843      C3844   1.372       .  A
C3843      H3855   1.082       .  S
C3844      H3856   1.082       .  S
C3845      C3846   1.374       .  A
C3845      H3857   1.082       .  S
C3846      H3858   1.083       .  S
C3847      C4159   1.476       .  S
C3848      C4229   1.501       .  S
C3849      C4166   1.471       .  S
C3850      C4146   1.497       .  S
N3861      C3866   1.356       .  A
N3861      C3865   1.351       .  A
N3861      H3893   1.039       .  S
N3862      C3869   1.345       .  A
N3862      C3870   1.351       .  A
N3863      C3868   1.344       .  A
N3863      C3867   1.353       .  A
N3863      H3894   1.038       .  S
N3864      C3871   1.353       .  A
N3864      C3872   1.350       .  A
C3865      C3873   1.390       .  A
C3865      C3881   1.418       .  A
C3866      C3882   1.414       .  A
C3866      C3874   1.385       .  A
C3867      C3875   1.389       .  A
C3868      C3883   1.405       .  A
C3868      C3876   1.385       .  A
C3869      C3881   1.408       .  A
C3869      C3877   1.386       .  A
C3870      C3884   1.417       .  A
C3870      C3878   1.387       .  A
C3871      C3879   1.384       .  A
C3872      C3880   1.388       .  A
C3872      C3883   1.412       .  A
C3873      C3874   1.371       .  A
C3873      H3885   1.082       .  S
C3874      H3886   1.082       .  S
C3875      C3876   1.379       .  A
C3875      H3887   1.082       .  S
C3876      H3888   1.082       .  S
C3877      C3878   1.376       .  A
C3877      H3889   1.082       .  S
C3878      H3890   1.082       .  S
C3879      C3880   1.372       .  A
C3879      H3891   1.082       .  S
C3880      H3892   1.082       .  S
C3881      C4126   1.475       .  S
C3882      C4216   1.495       .  S
C3883      C4116   1.474       .  S
C3884      C4136   1.499       .  S
N3895      C3900   1.351       .  A
N3895      C3899   1.354       .  A
N3895      H3927   1.040       .  S
N3896      C3903   1.355       .  A
N3896      C3904   1.351       .  A
N3897      C3902   1.355       .  A
N3897      C3901   1.345       .  A
N3897      H3928   1.036       .  S
N3898      C3905   1.341       .  A
N3898      C3906   1.347       .  A
C3899      C3907   1.385       .  A
C3899      C3915   1.411       .  A
C3900      C3916   1.416       .  A
C3900      C3908   1.389       .  A
C3901      C3909   1.388       .  A
C3901      C3918   1.409       .  A
C3902      C3917   1.415       .  A
C3902      C3910   1.386       .  A
C3903      C3915   1.412       .  A
C3903      C3911   1.384       .  A
C3904      C3918   1.417       .  A
C3904      C3912   1.388       .  A
C3905      C3913   1.387       .  A
C3905      C3916   1.403       .  A
C3906      C3914   1.385       .  A
C3906      C3917   1.408       .  A
C3907      C3908   1.374       .  A
C3907      H3919   1.082       .  S
C3908      H3920   1.082       .  S
C3909      C3910   1.377       .  A
C3909      H3921   1.082       .  S
C3910      H3922   1.082       .  S
C3911      C3912   1.375       .  A
C3911      H3923   1.082       .  S
C3912      H3924   1.083       .  S
C3913      C3914   1.375       .  A
C3913      H3925   1.083       .  S
C3914      H3926   1.082       .  S
C3915      C4189   1.497       .  S
C3916      C4119   1.473       .  S
C3917      C4106   1.489       .  S
C3918      C4129   1.474       .  S
N3929      C3934   1.358       .  A
N3929      C3933   1.352       .  A
N3929      H3961   1.042       .  S
N3930      C3937   1.343       .  A
N3930      C3938   1.350       .  A
N3931      C3936   1.346       .  A
N3931      C3935   1.358       .  A
N3931      H3962   1.041       .  S
N3932      C3939   1.355       .  A
N3932      C3940   1.351       .  A
C3933      C3941   1.389       .  A
C3933      C3949   1.418       .  A
C3934      C3942   1.385       .  A
C3935      C3943   1.387   1_545  A
C3935      C3952   1.422       .  A
C3936      C3951   1.410       .  A
C3936      C3944   1.386   1_545  A
C3937      C3949   1.405       .  A
C3937      C3945   1.387       .  A
C3938      C3946   1.385       .  A
C3939      C3947   1.383       .  A
C3939      C3950   1.411       .  A
C3940      C3948   1.389       .  A
C3940      C3951   1.415       .  A
C3941      C3942   1.374       .  A
C3941      H3953   1.083       .  S
C3942      H3954   1.082       .  S
C3943      C3944   1.380       .  A
C3943      H3955   1.082       .  S
C3944      H3956   1.082       .  S
C3945      C3946   1.377       .  A
C3945      H3957   1.081       .  S
C3946      H3958   1.082       .  S
C3947      C3948   1.372       .  A
C3947      H3959   1.082       .  S
C3948      H3960   1.082       .  S
C3949      C4096   1.479       .  S
C3950      C4339   1.502       .  S
C3951      C4086   1.475   1_545  S
C3952      C4176   1.510       .  S
N3963      C3968   1.350       .  A
N3963      C3967   1.355       .  A
N3963      H3995   1.041       .  S
N3964      C3971   1.354       .  A
N3964      C3972   1.348       .  A
N3965      C3970   1.355       .  A
N3965      C3969   1.342       .  A
N3965      H3996   1.039       .  S
N3966      C3973   1.340       .  A
N3966      C3974   1.349       .  A
C3967      C3975   1.385       .  A
C3968      C3984   1.414       .  A
C3968      C3976   1.389       .  A
C3969      C3977   1.388       .  A
C3969      C3986   1.405       .  A
C3970      C3985   1.416       .  A
C3970      C3978   1.386       .  A
C3971      C3983   1.409       .  A
C3971      C3979   1.383       .  A
C3972      C3986   1.415       .  A
C3972      C3980   1.390       .  A
C3973      C3981   1.388       .  A
C3973      C3984   1.403       .  A
C3974      C3982   1.385       .  A
C3975      C3976   1.374       .  A
C3975      H3987   1.082       .  S
C3976      H3988   1.082       .  S
C3977      C3978   1.380       .  A
C3977      H3989   1.082       .  S
C3978      H3990   1.082       .  S
C3979      C3980   1.374       .  A
C3979      H3991   1.082       .  S
C3980      H3992   1.082       .  S
C3981      C3982   1.377       .  A
C3981      H3993   1.082       .  S
C3982      H3994   1.082       .  S
C3983      C4309   1.495       .  S
C3984      C4076   1.468       .  S
C3985      C4149   1.499   1_655  S
C3986      C4066   1.467       .  S
N3997      C4002   1.355       .  A
N3997      C4001   1.349       .  A
N3997      H4029   1.036       .  S
N3998      C4005   1.349       .  A
N3998      C4006   1.353       .  A
N3999      C4004   1.351       .  A
N3999      C4003   1.356       .  A
N3999      H4030   1.038       .  S
N4000      C4007   1.353       .  A
N4000      C4008   1.348       .  A
C4001      C4009   1.389       .  A
C4001      C4017   1.415       .  A
C4002      C4018   1.415       .  A
C4002      C4010   1.385       .  A
C4003      C4011   1.385       .  A
C4003      C4020   1.413       .  A
C4004      C4019   1.417       .  A
C4004      C4012   1.390       .  A
C4005      C4017   1.415       .  A
C4005      C4013   1.389       .  A
C4006      C4020   1.413       .  A
C4006      C4014   1.385       .  A
C4007      C4015   1.384       .  A
C4007      C4018   1.414       .  A
C4008      C4016   1.388       .  A
C4008      C4019   1.414       .  A
C4009      C4010   1.375       .  A
C4009      H4021   1.082       .  S
C4010      H4022   1.082       .  S
C4011      C4012   1.370       .  A
C4011      H4023   1.082       .  S
C4012      H4024   1.082       .  S
C4013      C4014   1.371       .  A
C4013      H4025   1.082       .  S
C4014      H4026   1.082       .  S
C4015      C4016   1.373       .  A
C4015      H4027   1.082       .  S
C4016      H4028   1.082       .  S
C4017      C4099   1.478       .  S
C4018      C4279   1.498       .  S
C4019      C4089   1.479       .  S
C4020      C4139   1.498       .  S
N4031      C4036   1.355       .  A
N4031      C4035   1.349       .  A
N4031      H4063   1.040       .  S
N4032      C4039   1.340       .  A
N4032      C4040   1.348       .  A
N4033      C4038   1.344       .  A
N4033      C4037   1.355       .  A
N4033      H4064   1.039       .  S
N4034      C4041   1.354       .  A
N4034      C4042   1.347       .  A
C4035      C4043   1.391       .  A
C4035      C4051   1.415       .  A
C4036      C4052   1.409       .  A
C4036      C4044   1.383       .  A
C4037      C4045   1.385       .  A
C4037      C4054   1.412       .  A
C4038      C4053   1.406       .  A
C4038      C4046   1.387       .  A
C4039      C4051   1.403       .  A
C4039      C4047   1.388       .  A
C4040      C4054   1.407       .  A
C4040      C4048   1.385       .  A
C4041      C4049   1.383       .  A
C4041      C4052   1.409       .  A
C4042      C4050   1.390       .  A
C4042      C4053   1.413       .  A
C4043      C4044   1.376       .  A
C4043      H4055   1.082       .  S
C4044      H4056   1.082       .  S
C4045      C4046   1.377       .  A
C4045      H4057   1.082       .  S
C4046      H4058   1.082       .  S
C4047      C4048   1.374       .  A
C4047      H4059   1.082       .  S
C4048      H4060   1.082       .  S
C4049      C4050   1.373       .  A
C4049      H4061   1.082       .  S
C4050      H4062   1.082       .  S
C4051      C4079   1.466       .  S
C4052      C4269   1.496       .  S
C4053      C4069   1.468       .  S
C4054      C4109   1.492       .  S
C4065      C4066   1.404       .  A
C4065      C4070   1.402       .  A
C4065     Br4072   1.926       .  S
C4066      C4067   1.410       .  A
C4067      C4068   1.393       .  A
C4067     Br4074   1.934       .  S
C4068      C4069   1.408       .  A
C4068     Br4073   1.937       .  S
C4069      C4070   1.406       .  A
C4070     Br4071   1.926       .  S
C4075      C4076   1.409       .  A
C4075      C4080   1.394       .  A
C4075     Br4082   1.932       .  S
C4076      C4077   1.405       .  A
C4077      C4078   1.400       .  A
C4077     Br4084   1.925       .  S
C4078      C4079   1.404       .  A
C4078     Br4083   1.927       .  S
C4079      C4080   1.407       .  A
C4080     Br4081   1.934       .  S
C4085      C4090   1.396       .  A
C4085     Br4092   1.933       .  S
C4086      C4087   1.408       .  A
C4087      C4088   1.406       .  A
C4087     Br4094   1.926       .  S
C4088     Br4093   1.927       .  S
C4089      C4090   1.410       .  A
C4090     Br4091   1.935       .  S
C4095      C4100   1.406       .  A
C4095     Br4102   1.922       .  S
C4096      C4097   1.413       .  A
C4097      C4098   1.396       .  A
C4097     Br4104   1.935       .  S
C4098     Br4103   1.932   1_545  S
C4099      C4100   1.410       .  A
C4100     Br4101   1.928       .  S
C4105      C4106   1.408       .  A
C4105      C4110   1.408       .  A
C4105     Br4112   1.929       .  S
C4106      C4107   1.409       .  A
C4107      C4108   1.408       .  A
C4107     Br4114   1.929       .  S
C4108      C4109   1.410       .  A
C4108     Br4113   1.929       .  S
C4109      C4110   1.412       .  A
C4110     Br4111   1.929       .  S
C4115      C4116   1.411       .  A
C4115      C4120   1.396       .  A
C4115     Br4122   1.935       .  S
C4116      C4117   1.407       .  A
C4117      C4118   1.404       .  A
C4117     Br4124   1.924       .  S
C4118      C4119   1.405       .  A
C4118     Br4123   1.926       .  S
C4119      C4120   1.408       .  A
C4120     Br4121   1.936       .  S
C4125      C4126   1.408       .  A
C4125      C4130   1.394       .  A
C4125     Br4132   1.935       .  S
C4126      C4127   1.408       .  A
C4127      C4128   1.407       .  A
C4127     Br4134   1.926       .  S
C4128      C4129   1.407       .  A
C4128     Br4133   1.925       .  S
C4129      C4130   1.409       .  A
C4130     Br4131   1.936       .  S
C4135      C4136   1.412       .  A
C4135      C4140   1.406       .  A
C4135     Br4142   1.931       .  S
C4137      C4138   1.410       .  A
C4137     Br4144   1.930       .  S
C4138     Br4143   1.930       .  S
C4139      C4140   1.411       .  A
C4140     Br4141   1.931       .  S
C4145      C4146   1.409   1_655  A
C4145      C4150   1.410       .  A
C4145     Br4152   1.928       .  S
C4147      C4148   1.410       .  A
C4147     Br4154   1.928       .  S
C4148     Br4153   1.928       .  S
C4149      C4150   1.413   1_455  A
C4150     Br4151   1.926       .  S
C4155      C4156   1.407       .  A
C4155      C4160   1.407       .  A
C4155     Br4162   1.927       .  S
C4157      C4158   1.395       .  A
C4157     Br4164   1.935   1_455  S
C4158     Br4163   1.935   1_455  S
C4159      C4160   1.410       .  A
C4160     Br4161   1.926       .  S
C4165      C4166   1.411       .  A
C4165      C4170   1.394       .  A
C4165     Br4172   1.936       .  S
C4167      C4168   1.402       .  A
C4167     Br4174   1.925       .  S
C4168     Br4173   1.927       .  S
C4169      C4170   1.406       .  A
C4170     Br4171   1.933       .  S
C4175      C4180   1.413       .  A
C4175     Br4182   1.931       .  S
C4177      C4178   1.413       .  A
C4177     Br4184   1.933       .  S
C4178     Br4183   1.930       .  S
C4180     Br4181   1.930       .  S
C4185      C4186   1.426       .  A
C4185      C4190   1.415       .  A
C4185     Br4192   1.934       .  S
C4186      C4187   1.424       .  A
C4187      C4188   1.411       .  A
C4187     Br4194   1.934       .  S
C4188      C4189   1.405       .  A
C4188     Br4193   1.932       .  S
C4189      C4190   1.408       .  A
C4190     Br4191   1.933       .  S
C4195      C4196   1.422   1_556  A
C4195      C4200   1.434       .  A
C4195     Br4202   1.930       .  S
C4196      C4197   1.425       .  A
C4197      C4198   1.438       .  A
C4197     Br4204   1.931       .  S
C4198      C4199   1.426       .  A
C4198     Br4203   1.930       .  S
C4199      C4200   1.424   1_554  A
C4200     Br4201   1.929       .  S
C4205      C4206   1.430   1_556  A
C4205      C4210   1.441       .  A
C4205     Br4212   1.931       .  S
C4206      C4207   1.428       .  A
C4207      C4208   1.437       .  A
C4207     Br4214   1.929       .  S
C4208      C4209   1.425       .  A
C4208     Br4213   1.932       .  S
C4209      C4210   1.429   1_554  A
C4210     Br4211   1.933       .  S
C4215      C4220   1.412       .  A
C4215     Br4222   1.933       .  S
C4216      C4217   1.406       .  A
C4217      C4218   1.412       .  A
C4217     Br4224   1.934       .  S
C4218      C4219   1.424       .  A
C4218     Br4223   1.933       .  S
C4220     Br4221   1.931       .  S
C4225      C4230   1.411       .  A
C4225     Br4232   1.932       .  S
C4226      C4227   1.415       .  A
C4227      C4228   1.415       .  A
C4227     Br4234   1.931       .  S
C4228      C4229   1.412       .  A
C4228     Br4233   1.928       .  S
C4230     Br4231   1.929   1_455  S
C4235      C4236   1.425   1_556  A
C4235      C4240   1.437       .  A
C4235     Br4242   1.930       .  S
C4237      C4238   1.439       .  A
C4237     Br4244   1.925   1_455  S
C4238     Br4243   1.930   1_455  S
C4239      C4240   1.425   1_554  A
C4240     Br4241   1.930       .  S
C4245      C4250   1.437       .  A
C4245     Br4252   1.930   1_455  S
C4246      C4247   1.424       .  A
C4247      C4248   1.438       .  A
C4247     Br4254   1.927       .  S
C4248      C4249   1.426       .  A
C4248     Br4253   1.929       .  S
C4250     Br4251   1.929   1_455  S
C4255      C4260   1.415       .  A
C4255     Br4262   1.929   1_455  S
C4257      C4258   1.415       .  A
C4257     Br4264   1.930       .  S
C4258     Br4263   1.928       .  S
C4260     Br4261   1.932       .  S
C4265      C4266   1.427       .  A
C4265      C4270   1.413       .  A
C4265     Br4272   1.934       .  S
C4266      C4267   1.428       .  A
C4267      C4268   1.412       .  A
C4267     Br4274   1.935       .  S
C4268      C4269   1.404       .  A
C4268     Br4273   1.932       .  S
C4269      C4270   1.406       .  A
C4270     Br4271   1.933       .  S
C4275      C4276   1.425       .  A
C4275      C4280   1.415       .  A
C4275     Br4282   1.933       .  S
C4277      C4278   1.412       .  A
C4277     Br4284   1.933       .  S
C4278     Br4283   1.934       .  S
C4279      C4280   1.407       .  A
C4280     Br4281   1.932       .  S
C4285      C4286   1.423       .  A
C4285      C4290   1.438       .  A
C4285     Br4292   1.927       .  S
C4286      C4287   1.426       .  A
C4287      C4288   1.438       .  A
C4287     Br4294   1.927       .  S
C4288      C4289   1.422       .  A
C4288     Br4293   1.930       .  S
C4289      C4290   1.424       .  A
C4290     Br4291   1.928       .  S
C4295      C4296   1.435       .  A
C4295      C4300   1.445       .  A
C4295     Br4302   1.934       .  S
C4296      C4297   1.435       .  A
C4297      C4298   1.447       .  A
C4297     Br4304   1.933       .  S
C4298      C4299   1.433       .  A
C4298     Br4303   1.933       .  S
C4299      C4300   1.431       .  A
C4300     Br4301   1.933       .  S
C4305      C4306   1.421   1_455  A
C4305      C4310   1.411       .  A
C4305     Br4312   1.933       .  S
C4307      C4308   1.411       .  A
C4307     Br4314   1.937       .  S
C4308     Br4313   1.933       .  S
C4309      C4310   1.407   1_655  A
C4310     Br4311   1.932       .  S
C4315      C4320   1.440       .  A
C4315     Br4322   1.932       .  S
C4316      C4317   1.431       .  A
C4317      C4318   1.442       .  A
C4317     Br4324   1.930       .  S
C4318      C4319   1.427       .  A
C4318     Br4323   1.927       .  S
C4320     Br4321   1.931       .  S
C4325      C4330   1.442       .  A
C4325     Br4332   1.930       .  S
C4326      C4327   1.430       .  A
C4327      C4328   1.443       .  A
C4327     Br4334   1.928   1_545  S
C4328      C4329   1.425       .  A
C4328     Br4333   1.927   1_545  S
C4330     Br4331   1.930       .  S
C4335      C4340   1.413       .  A
C4335     Br4342   1.936   1_545  S
C4337      C4338   1.418       .  A
C4337     Br4344   1.933       .  S
C4338     Br4343   1.932       .  S
C4340     Br4341   1.935   1_545  S
C4345      C4346   1.409       .  A
C4345      C4350   1.414       .  A
C4345     Br4352   1.930       .  S
C4346      C4347   1.409       .  A
C4347      C4348   1.408       .  A
C4347     Br4354   1.930       .  S
C4348      C4349   1.412       .  A
C4348     Br4353   1.931       .  S
C4349      C4350   1.419       .  A
C4350     Br4351   1.932       .  S
C4355      C4356   1.417       .  A
C4355      C4360   1.411       .  A
C4355     Br4362   1.934   1_545  S
C4356      C4357   1.417       .  A
C4357      C4358   1.412       .  A
C4358      C4359   1.408       .  A
C4358     Br4363   1.930       .  S
C4359      C4360   1.409       .  A
C4360     Br4361   1.928   1_545  S
C4365      C4370   1.412       .  A
C4365     Br4372   1.929       .  S
C4366      C4367   1.418       .  A
C4367      C4368   1.412       .  A
C4367     Br4374   1.931       .  S
C4368      C4369   1.408       .  A
C4368     Br4373   1.931       .  S
C4370     Br4371   1.932       .  S
C4375      C4376   1.407       .  A
C4375      C4380   1.403       .  A
C4375     Br4382   1.927       .  S
C4376      C4377   1.407       .  A
C4377      C4378   1.394       .  A
C4377     Br4384   1.935       .  S
C4378      C4379   1.409       .  A
C4378     Br4383   1.935       .  S
C4379      C4380   1.406       .  A
C4380     Br4381   1.926       .  S
C4385      C4386   1.404       .  A
C4385      C4390   1.402       .  A
C4385     Br4392   1.923       .  S
C4386      C4387   1.405       .  A
C4387      C4388   1.393       .  A
C4387     Br4394   1.934       .  S
C4388      C4389   1.409       .  A
C4388     Br4393   1.934       .  S
C4389      C4390   1.404       .  A
C4390     Br4391   1.924       .  S
C4395      C4400   1.413       .  A
C4395     Br4402   1.932       .  S
C4397      C4398   1.415       .  A
C4397     Br4404   1.925       .  S
C4398      C4399   1.410       .  A
C4398     Br4403   1.930       .  S
C4400     Br4401   1.930       .  S
C4405      C4410   1.393       .  A
C4405     Br4412   1.933       .  S
C4406      C4407   1.407       .  A
C4407      C4408   1.400       .  A
C4407     Br4414   1.929       .  S
C4408     Br4413   1.925       .  S
C4409      C4410   1.409       .  A
C4410     Br4411   1.934       .  S
C4415      C4420   1.399       .  A
C4415     Br4422   1.925       .  S
C4416      C4417   1.412       .  A
C4417      C4418   1.391       .  A
C4417     Br4424   1.935   1_545  S
C4418     Br4423   1.934   1_545  S
C4419      C4420   1.405       .  A
C4420     Br4421   1.929       .  S
C4425      C4426   1.406       .  A
C4425      C4430   1.412       .  A
C4425     Br4432   1.932       .  S
C4426      C4427   1.408       .  A
C4427      C4428   1.411       .  A
C4427     Br4434   1.935       .  S
C4428      C4429   1.422       .  A
C4428     Br4433   1.933       .  S
C4429      C4430   1.425       .  A
C4430     Br4431   1.935       .  S
C4435      C4436   1.413       .  A
C4435      C4440   1.411       .  A
C4435     Br4442   1.931       .  S
C4436      C4437   1.411       .  A
C4437      C4438   1.410       .  A
C4437     Br4444   1.929       .  S
C4438      C4439   1.411       .  A
C4438     Br4443   1.929       .  S
C4439      C4440   1.411       .  A
C4440     Br4441   1.929       .  S
C4445      C4450   1.411       .  A
C4445     Br4452   1.933       .  S
C4446      C4447   1.404       .  A
C4447      C4448   1.409       .  A
C4447     Br4454   1.934       .  S
C4448      C4449   1.425       .  A
C4448     Br4453   1.933       .  S
C4450     Br4451   1.934       .  S
C4455      C4456   1.407       .  A
C4455      C4460   1.404       .  A
C4455     Br4462   1.926       .  S
C4456      C4457   1.407       .  A
C4457      C4458   1.395       .  A
C4457     Br4464   1.935       .  S
C4458      C4459   1.411       .  A
C4458     Br4463   1.936       .  S
C4459      C4460   1.407       .  A
C4460     Br4461   1.927       .  S
C4465      C4466   1.408       .  A
C4465      C4470   1.408       .  A
C4465     Br4472   1.926       .  S
C4466      C4467   1.409       .  A
C4467      C4468   1.397       .  A
C4467     Br4474   1.935       .  S
C4468      C4469   1.409       .  A
C4468     Br4473   1.935       .  S
C4469      C4470   1.408       .  A
C4470     Br4471   1.926       .  S
C4475      C4480   1.406       .  A
C4475     Br4482   1.930       .  S
C4476      C4477   1.409   1_545  A
C4477      C4478   1.409       .  A
C4477     Br4484   1.931       .  S
C4478      C4479   1.415   1_565  A
C4478     Br4483   1.931       .  S
C4480     Br4481   1.930       .  S
C4485      C4490   1.415       .  A
C4485     Br4492   1.933   1_455  S
C4486      C4487   1.406       .  A
C4487      C4488   1.415       .  A
C4487     Br4494   1.933       .  S
C4488      C4489   1.428       .  A
C4488     Br4493   1.934       .  S
C4490     Br4491   1.936   1_455  S
C4495      C4496   1.413       .  A
C4495      C4500   1.412       .  A
C4495     Br4502   1.932       .  S
C4497      C4498   1.412       .  A
C4497     Br4504   1.933       .  S
C4498     Br4503   1.931       .  S
C4499      C4500   1.416       .  A
C4500     Br4501   1.930       .  S
C4505      C4510   1.417       .  A
C4505     Br4512   1.933   1_565  S
C4507      C4508   1.410       .  A
C4507     Br4514   1.935   1_455  S
C4508     Br4513   1.937   1_455  S
C4510     Br4511   1.932   1_565  S
C4515      C4516   1.405       .  A
C4515      C4520   1.405       .  A
C4515     Br4522   1.927       .  S
C4517      C4518   1.396       .  A
C4517     Br4524   1.934       .  S
C4518     Br4523   1.936   1_455  S
C4519      C4520   1.410       .  A
C4520     Br4521   1.927       .  S
C4525      C4526   1.406       .  A
C4525      C4530   1.395       .  A
C4525     Br4532   1.933       .  S
C4527      C4528   1.406       .  A
C4527     Br4534   1.927       .  S
C4528     Br4533   1.925       .  S
C4529      C4530   1.410       .  A
C4530     Br4531   1.935       .  S
C4535      C4540   1.416       .  A
C4535     Br4542   1.929       .  S
C4537      C4538   1.415       .  A
C4537     Br4544   1.931       .  S
C4538     Br4543   1.930       .  S
C4540     Br4541   1.930       .  S
