geometry optimzed in LAMMPS
_audit_creation_date              2020-11-30 
_audit_creation_method            'lammps2cif' 
_symmetry_space_group_name_H-M    'P1' 
_symmetry_Int_Tables_number       1 
_symmetry_cell_setting            triclinic 
loop_ 
_symmetry_equiv_pos_as_xyz 
  x,y,z 
_cell_length_a                    51.26890971 
_cell_length_b                    51.58871944067518 
_cell_length_c                    30.191597355187884 
_cell_angle_alpha                 89.89666090017504 
_cell_angle_beta                  89.01597805360028 
_cell_angle_gamma                 120.35782643344845 
loop_ 
_atom_site_label 
_atom_site_type_symbol 
_atom_site_fract_x 
_atom_site_fract_y 
_atom_site_fract_z 
_atom_site_charge 
C1          C  0.36970098  0.08710406  0.32738682     0.03200
C2          C  0.38135950  0.11523846  0.01744215    -0.13000
C3          C  0.40536643  0.12460811  0.04735119     0.00700
C4          C  0.41743522  0.10567164  0.05466235    -0.11500
C5          C  0.40751827  0.07883227  0.36285954     0.03200
C6          C  0.38254154  0.06912126  0.33548252    -0.10900
H7          H  0.37381568  0.13051050  0.00778674     0.08800
H8          H  0.43686149  0.11329878  0.07566265     0.06300
H9          H  0.37484472  0.04878390  0.31663878     0.06100
C10         C  0.08675656  0.20893295  0.29259590     0.03200
C11         C  0.11286516  0.22174444  0.31896053    -0.13000
C12         C  0.11451446  0.20479600  0.01898956     0.00700
C13         C  0.09199988  0.17455195  0.02438139    -0.11500
C14         C  0.06984746  0.16060442  0.32757383     0.03200
C15         C  0.06531633  0.17817801  0.29720741    -0.10900
H16         H  0.13029894  0.24473720  0.31279558     0.08800
H17         H  0.09403474  0.16082388  0.04981331     0.06300
H18         H  0.04580888  0.16778262  0.27611453     0.06100
C19         C  0.19397156  0.08541567  0.04754629     0.03200
C20         C  0.21044010  0.11160080  0.02137733    -0.13000
C21         C  0.19572739  0.12317150  0.32832635     0.00700
C22         C  0.16396071  0.10846633  0.33193261    -0.11500
C23         C  0.14679746  0.08290935  0.02749584     0.03200
C24         C  0.16235543  0.07196276  0.05168692    -0.10900
H25         H  0.23484321  0.12268975  0.01966767     0.08800
H26         H  0.15196123  0.11631415  0.31180269     0.06300
H27         H  0.14973592  0.05194312  0.07211637     0.06100
C28         C  0.11262443  0.42592829  0.28482391     0.03200
C29         C  0.09720915  0.44174092  0.28946272    -0.13000
C30         C  0.06882899  0.42831539  0.31018510     0.00700
C31         C  0.05704454  0.40062632  0.99632009    -0.11500
C32         C  0.07352235  0.38571923  0.99748394     0.03200
C33         C  0.10119727  0.39793229  0.30687611    -0.10900
H34         H  0.10716312  0.46445755  0.27661010     0.08800
H35         H  0.03587371  0.39149844  0.01491926     0.06300
H36         H  0.11364511  0.38613636  0.30515807     0.06100
C37         C  0.41710200  0.30522686  0.31082066     0.03200
C38         C  0.42543638  0.33571895  0.30758054    -0.13000
C39         C  0.41417622  0.34877383  0.33701659     0.00700
C40         C  0.39058538  0.33143951  0.02875045    -0.11500
C41         C  0.38117426  0.30082440  0.03403341     0.03200
C42         C  0.39540939  0.28749713  0.34428586    -0.11100
H43         H  0.44133707  0.34993597  0.28194705     0.08800
H44         H  0.38043797  0.34145997  0.04896511     0.06300
H45         H  0.38949647  0.26451832  0.34987907     0.06100
C46         C  0.29204579  0.37800808  0.30009530     0.03200
C47         C  0.27655163  0.38905533  0.32626972    -0.13000
C48         C  0.29350941  0.41856941  0.01035200     0.00700
C49         C  0.32462662  0.43565030  0.00336965    -0.11500
C50         C  0.33888995  0.42545797  0.30909850     0.03200
C51         C  0.32321980  0.39672630  0.29134464    -0.10900
H52         H  0.25257313  0.37519543  0.33323746     0.08800
H53         H  0.33733211  0.45686242  0.02020558     0.06300
H54         H  0.33528298  0.38885996  0.27073040     0.06100
O55         O  0.45715994  0.45702194  0.29491059    -0.88300
C56         C  0.43955677  0.99737686  0.06411225     0.87700
Mg57       Mg  0.48987578  0.44345099  0.29807820     1.58100
O58         O  0.47697788  0.04586930  0.30472104    -0.88000
O59         O  0.44326260  0.48328154  0.25502967    -0.75400
C60         C  0.11328143  0.06539983  0.02533845     0.92800
O61         O  0.46168534  0.44774166  0.06354181    -0.75200
O62         O  0.09969540  0.03698001  0.03059595    -0.82700
Mg63       Mg  0.42637286  0.44348750  0.01363238     1.58000
C64         C  0.05262276  0.12787461  0.32698667     0.92700
O65         O  0.38796087  0.43284710  0.30361095    -0.80900
H66         H  0.47919841  0.05519997  0.24004856    -0.06300
C67         C  0.03153946  0.04841573  0.07300332     0.87700
O68         O  0.02452742  0.48492175  0.25750044    -0.75400
O69         O  0.43938907  0.48980445  0.02397326    -0.88200
O70         O  0.02461915  0.11395282  0.33753001    -0.81000
C71         C  0.42595486  0.06434976  0.02766328     0.92800
C72         C  0.37161154  0.44474713  0.30436031     0.92700
Mg73       Mg  0.05563534  0.06702431  0.31159399     1.58000
O74         O  0.09917103  0.07892987  0.01478029    -0.80900
O75         O  0.01773144  0.06066143  0.26579408    -0.75200
O76         O  0.41443768  0.03816947  0.01098944    -0.81000
O77         O  0.41143719  0.39431934  0.00541087    -0.82700
O78         O  0.06485339  0.47130382  0.32401376    -0.81100
C79         C  0.49095426  0.05450332  0.26901305     0.87100
O80         O  0.04406748  0.02124361  0.30557612    -0.88200
O81         O  0.02561632  0.05484130  0.03654397    -0.88300
O82         O  0.03941819  0.02884315  0.07709406    -0.75400
Mg83       Mg  0.43117519  0.01092163  0.30181193     1.58000
O84         O  0.45389908  0.07954946  0.03686887    -0.82700
H85         H  0.45561965  0.45473325  0.22878762    -0.06500
O86         O  0.00409100  0.46694964  0.02543628    -0.88000
H87         H  0.00231478  0.45636141  0.08963093    -0.06300
H88         H  0.05838406  0.02752564  0.24234793    -0.06500
C89         C  0.48962004  0.45631041  0.05958379     0.87100
C90         C  0.45207336  0.46434139  0.25847862     0.87700
C91         C  0.04331971  0.01213757  0.26768207     0.87700
H92         H  0.02916452  0.05913950  0.10230397    -0.06400
O93         O  0.45787496  0.02419604  0.07527284    -0.75500
Mg94       Mg  0.05003047  0.00067592  0.02915594     1.58000
H95         H  0.42716322  0.48169302  0.08804268    -0.06500
C96         C  0.42752339  0.38248550  0.99803231     0.92700
O97         O  0.02373272  0.42898952  0.30391492    -0.82700
C98         C  0.05166018  0.44389547  0.31225612     0.92800
O99         O  0.38290794  0.47301796  0.30573698    -0.82700
Mg100      Mg  0.99099003  0.06716985  0.03628166     1.58200
O101        O  0.45556055  0.39829431  0.98852454    -0.81000
O102        O  0.06743608  0.11464140  0.31939878    -0.82700
C103        C  0.02827786  0.25756209  0.18810323     0.86500
C104        C  0.50300767  0.22940976  0.16487981    -0.53700
C105        C  0.48346223  0.23382120  0.14064295     0.09500
C106        C  0.48839182  0.26600569  0.14521685     0.20400
C107        C  0.04242067  0.28191356  0.15163813    -0.54400
C108        C  0.02254462  0.28712778  0.12845302     0.09600
C109        C  0.50861731  0.26629381  0.21803352    -0.54000
C110        C  0.48847820  0.27130081  0.19593415     0.10100
H111        H  0.50153379  0.20766776  0.16567381     0.14700
H112        H  0.47133970  0.26926391  0.12853475     0.00400
H113        H  0.06656282  0.29368985  0.14445212     0.15000
H114        H  0.51006021  0.26755043  0.25369336     0.14800
C115        C  0.26273087  0.48667577  0.13415605     0.86500
C116        C  0.28831685  0.00644312  0.16428123    -0.53700
C117        C  0.28279643  0.02499899  0.19048008     0.09500
C118        C  0.25008521  0.01922339  0.18517164     0.20400
C119        C  0.23485449  0.46879659  0.16454771    -0.54400
C120        C  0.22882761  0.48587623  0.19264486     0.09600
C121        C  0.25457985  0.00705383  0.10897594    -0.54000
C122        C  0.24798743  0.02444513  0.13540980     0.10100
H123        H  0.30901422  0.00572591  0.16528320     0.14700
H124        H  0.24369094  0.03252579  0.20672707     0.00400
H125        H  0.21982505  0.44472655  0.16224042     0.15000
H126        H  0.25167961  0.00672193  0.07341472     0.14800
C127        C  0.21631151  0.23489450  0.13748666     0.86500
C128        C  0.21040492  0.21190352  0.17393305    -0.53700
C129        C  0.23479685  0.21805574  0.19841743     0.09500
C130        C  0.26362827  0.24811772  0.18533403     0.20400
C131        C  0.22827668  0.26382615  0.16470594    -0.54400
C132        C  0.25361923  0.27206480  0.18970570     0.09600
C133        C  0.24412635  0.23935209  0.11070490    -0.54000
C134        C  0.26890918  0.24600871  0.13511280     0.10100
H135        H  0.18814311  0.19407361  0.18374506     0.14700
H136        H  0.28325776  0.25171040  0.20396784     0.00400
H137        H  0.21422457  0.27348332  0.17070146     0.15000
H138        H  0.24446079  0.23871009  0.07480776     0.14800
C139        C  0.26803028  0.42105758  0.07892824    -0.05700
C140        C  0.27966566  0.43303590  0.03683219     0.00200
C141        C  0.28670949  0.46289037  0.02697793    -0.08400
C142        C  0.28252154  0.47959481  0.06002106    -0.05700
C143        C  0.27032585  0.46767949  0.10244661     0.00200
C144        C  0.26571246  0.43863173  0.11288692    -0.08300
C145        C  0.26256755  0.42636021  0.15943276     0.62100
H146        H  0.26446831  0.39898315  0.08701989     0.12800
H147        H  0.28996980  0.50279883  0.05254871     0.12800
C148        C  0.30104819  0.47908015  0.31649211     0.62300
F149        F  0.28120091  0.41428106  0.16315305    -0.22800
F150        F  0.23293596  0.40406095  0.16740702    -0.20200
F151        F  0.27126585  0.44800569  0.19151704    -0.19800
F152        F  0.29379660  0.45906771  0.28207301    -0.19900
F153        F  0.33205822  0.49561231  0.32028320    -0.20200
F154        F  0.29144997  0.49878868  0.30556180    -0.22900
C155        C  0.28850953  0.32893274  0.28750563    -0.05700
C156        C  0.27701758  0.34792789  0.27889919     0.00200
C157        C  0.25816102  0.34180040  0.24251852    -0.08400
C158        C  0.25506300  0.31967776  0.21253617    -0.05700
C159        C  0.26495520  0.29893730  0.22127829     0.00200
C160        C  0.28238030  0.30406427  0.26061707    -0.08300
C161        C  0.29645679  0.28559773  0.27464479     0.62100
H162        H  0.30354728  0.33473562  0.31519734     0.12800
H163        H  0.24441914  0.31877440  0.18166358     0.12800
C164        C  0.24040485  0.35774129  0.23612325     0.62300
F165        F  0.31016786  0.29417179  0.31538378    -0.22800
F166        F  0.31868351  0.28964832  0.24424176    -0.20200
F167        F  0.27464989  0.25570826  0.27890735    -0.19800
F168        F  0.25931667  0.38846013  0.23687970    -0.19900
F169        F  0.21910748  0.34936595  0.27004145    -0.20200
F170        F  0.22523675  0.35027426  0.19647997    -0.22900
C171        C  0.32490864  0.28044929  0.13042358    -0.05700
C172        C  0.29932330  0.25500307  0.11410029     0.00200
C173        C  0.30339545  0.24076662  0.07634300    -0.08400
C174        C  0.33085360  0.25567856  0.05174138    -0.05700
C175        C  0.35574724  0.28241317  0.06643643     0.00200
C176        C  0.35342857  0.29313258  0.10895415    -0.08300
C177        C  0.38015411  0.31747578  0.13354802     0.62100
H178        H  0.32270581  0.29102700  0.16002980     0.12800
H179        H  0.33262091  0.24648879  0.02031278     0.12800
C180        C  0.28005234  0.20965430  0.06157771     0.62300
F181        F  0.38005143  0.30742264  0.17613906    -0.22800
F182        F  0.37766610  0.34291111  0.13607713    -0.20200
F183        F  0.40761898  0.32489356  0.11377643    -0.19800
F184        F  0.26488455  0.21182834  0.02568630    -0.19900
F185        F  0.25978643  0.19348665  0.09539099    -0.20200
F186        F  0.29410844  0.19380003  0.04910432    -0.22900
C187        C  0.43829629  0.25976628  0.22942581    -0.05700
C188        C  0.46892575  0.28075995  0.22043345     0.00200
C189        C  0.48135970  0.30964344  0.23902555    -0.08400
C190        C  0.46443203  0.31498567  0.27098204    -0.05700
C191        C  0.43360976  0.29436094  0.28057552     0.00200
C192        C  0.41992344  0.26654272  0.25737340    -0.08300
C193        C  0.38625380  0.24408873  0.26043145     0.62100
H194        H  0.42878303  0.23783976  0.21445566     0.12800
H195        H  0.47558310  0.33600136  0.28856769     0.12800
C196        C  0.01301952  0.33487735  0.22546048     0.62300
F197        F  0.37701626  0.22487473  0.22469501    -0.22800
F198        F  0.36986392  0.25869615  0.26028662    -0.20200
F199        F  0.37959500  0.22686949  0.29857590    -0.19800
F200        F  0.01889981  0.36199107  0.24325659    -0.19900
F201        F  0.01514374  0.33808718  0.17984294    -0.20200
F202        F  0.03478178  0.32902556  0.23993646    -0.22900
C203        C  0.03419970  0.33413192  0.02098056    -0.05700
C204        C  0.06260529  0.35934909  0.02826252     0.00200
C205        C  0.07710964  0.36118590  0.06850742    -0.08400
C206        C  0.06230904  0.33789361  0.10031576    -0.05700
C207        C  0.03406901  0.31176169  0.09293195     0.00200
C208        C  0.01984687  0.30996305  0.05166495    -0.08300
C209        C  0.48890439  0.28350285  0.03906967     0.62100
H210        H  0.02292807  0.33383546  0.99085931     0.12800
H211        H  0.07304487  0.34011967  0.13171778     0.12800
C212        C  0.10802229  0.38790779  0.07814549     0.62300
F213        F  0.48450637  0.28341313  0.99401973    -0.22800
F214        F  0.46547552  0.28463763  0.06043913    -0.20200
F215        F  0.48791325  0.25707909  0.04867767    -0.19800
F216        F  0.10778328  0.41434195  0.07206681    -0.19900
F217        F  0.12940307  0.38776903  0.04980994    -0.20200
F218        F  0.11663175  0.38721469  0.12113945    -0.22900
C219        C  0.16764520  0.44542137  0.28236900    -0.05700
C220        C  0.14185426  0.44021464  0.25981690     0.00200
C221        C  0.14471949  0.44999939  0.21502722    -0.08400
C222        C  0.17378372  0.46607307  0.19525660    -0.05700
C223        C  0.19968973  0.47199791  0.21824156     0.00200
C224        C  0.19652505  0.46092043  0.26216978    -0.08300
C225        C  0.22356799  0.46617179  0.28809018     0.62100
H226        H  0.16502548  0.43786793  0.31651675     0.12800
H227        H  0.17652867  0.47379315  0.16118963     0.12800
C228        C  0.11734915  0.44242510  0.18726257     0.62300
F229        F  0.24124144  0.49649262  0.29528167    -0.22800
F230        F  0.23977107  0.45588633  0.26448074    -0.20200
F231        F  0.21555519  0.45163940  0.32891877    -0.19800
F232        F  0.10533054  0.46016527  0.19888618    -0.19900
F233        F  0.09551359  0.41247004  0.19307356    -0.20200
F234        F  0.12503385  0.44741966  0.14271750    -0.22900
C235        C  0.21005720  0.02525883  0.08745077    -0.05700
C236        C  0.23429681  0.04131950  0.11600051     0.00200
C237        C  0.24694426  0.07283049  0.11962111    -0.08400
C238        C  0.23329993  0.08667862  0.09668978    -0.05700
C239        C  0.20912699  0.07037915  0.06798685     0.00200
C240        C  0.19880729  0.03952551  0.06098032    -0.08300
C241        C  0.17935033  0.02237761  0.35680224     0.62100
H242        H  0.20100839  0.00131928  0.08361048     0.12800
H243        H  0.24143887  0.11038499  0.10096296     0.12800
C244        C  0.27531856  0.09193593  0.14572553     0.62300
F245        F  0.19064003  0.00604407  0.33615672    -0.22800
F246        F  0.17668247  0.03978773  0.32434669    -0.20200
F247        F  0.15104009  0.00258227  0.37459886    -0.19800
F248        F  0.29786852  0.08643054  0.13181297    -0.19900
F249        F  0.26944656  0.08533975  0.19037857    -0.20200
F250        F  0.28598221  0.12231741  0.13979572    -0.22900
C251        C  0.20711295  0.17392848  0.30674514    -0.05700
C252        C  0.21184056  0.14994507  0.29832886     0.00200
C253        C  0.22738748  0.15034864  0.25869364    -0.08400
C254        C  0.23750586  0.17502602  0.22902516    -0.05700
C255        C  0.23115357  0.19818066  0.23663302     0.00200
C256        C  0.21539994  0.19743342  0.27627446    -0.08300
C257        C  0.20482177  0.21932077  0.28795215     0.62100
H258        H  0.19502367  0.17343401  0.33660312     0.12800
H259        H  0.24863277  0.17538782  0.19801680     0.12800
C260        C  0.23145173  0.12406651  0.24617402     0.62300
F261        F  0.21603194  0.23184808  0.32871592    -0.22800
F262        F  0.17359385  0.20391868  0.29034653    -0.20200
F263        F  0.21376705  0.24238488  0.25792338    -0.19800
F264        F  0.20386606  0.09757923  0.24812231    -0.19900
F265        F  0.25107383  0.12207373  0.27487089    -0.20200
F266        F  0.24324352  0.12724649  0.20361105    -0.22900
C267        C  0.15317754  0.19573650  0.05099948    -0.05700
C268        C  0.14239931  0.21573611  0.04592704     0.00200
C269        C  0.15547466  0.24216831  0.07142909    -0.08400
C270        C  0.17998732  0.24813525  0.09863315    -0.05700
C271        C  0.18890583  0.22664379  0.10732319     0.00200
C272        C  0.17344023  0.19882606  0.08403012    -0.08300
C273        C  0.17475086  0.17066738  0.09570127     0.62100
H274        H  0.14334992  0.17583400  0.03077972     0.12800
H275        H  0.19210555  0.27020612  0.11250076     0.12800
C276        C  0.14353593  0.26382441  0.07154569     0.62300
F277        F  0.16036992  0.14816473  0.06506826    -0.22800
F278        F  0.15965779  0.15867798  0.13543255    -0.20200
F279        F  0.20407231  0.17678182  0.09792501    -0.19800
F280        F  0.11230703  0.24821089  0.07518993    -0.19900
F281        F  0.15255197  0.28092801  0.03308817    -0.20200
F282        F  0.15437784  0.28327203  0.10694385    -0.22900
C283        C  0.07846608  0.25133465  0.27733608    -0.05700
C284        C  0.08077400  0.22721435  0.26081075     0.00200
C285        C  0.07333968  0.21885511  0.21609004    -0.08400
C286        C  0.05873808  0.23118150  0.19245282    -0.05700
C287        C  0.05171088  0.25194410  0.21153601     0.00200
C288        C  0.06613536  0.26535827  0.25207307    -0.08300
C289        C  0.07267060  0.29600202  0.26709324     0.62100
H290        H  0.08625608  0.25925595  0.31045609     0.12800
H291        H  0.05210632  0.22377749  0.15884430     0.12800
C292        C  0.07950284  0.19655486  0.19219584     0.62300
F293        F  0.10119234  0.31161102  0.28503963    -0.22800
F294        F  0.05189092  0.29316637  0.29929147    -0.20200
F295        F  0.07263997  0.31291851  0.23174079    -0.19800
F296        F  0.05242655  0.17031485  0.18540162    -0.19900
F297        F  0.09847591  0.18986217  0.21524821    -0.20200
F298        F  0.09323064  0.20843754  0.15148104    -0.22900
C299        C  0.43143398  0.19630354  0.11583472    -0.05700
C300        C  0.46290862  0.21002296  0.10931864     0.00200
C301        C  0.47427738  0.19806294  0.07671862    -0.08400
C302        C  0.45401912  0.17153819  0.05534213    -0.05700
C303        C  0.42283370  0.15608935  0.06460830     0.00200
C304        C  0.41098595  0.16949903  0.09370168    -0.08300
C305        C  0.37724373  0.15570299  0.10195413     0.62100
H306        H  0.42307083  0.20605712  0.13987733     0.12800
H307        H  0.46298630  0.16196727  0.03183580     0.12800
C308        C  0.00766772  0.21097813  0.06251610     0.62300
F309        F  0.37099772  0.16997664  0.13578220    -0.22800
F310        F  0.36427882  0.12574770  0.11347856    -0.20200
F311        F  0.36399621  0.15827918  0.06403126    -0.19800
F312        F  0.01754238  0.19182119  0.07614369    -0.19900
F313        F  0.02666762  0.23909636  0.07915199    -0.20200
F314        F  0.01023675  0.21356692  0.01677898    -0.22900
C315        C  0.35776660  0.07526973  0.24852576    -0.05700
C316        C  0.34759050  0.07782495  0.29074914     0.00200
C317        C  0.31655801  0.06802703  0.29742769    -0.08400
C318        C  0.29645367  0.05360872  0.26223952    -0.05700
C319        C  0.30616389  0.04769342  0.22141081     0.00200
C320        C  0.33801266  0.06169633  0.21322459    -0.08300
C321        C  0.35280806  0.06410266  0.16814126     0.62100
H322        H  0.38175170  0.08380937  0.24322395     0.12800
H323        H  0.27279675  0.04587938  0.26735924     0.12800
C324        C  0.30390707  0.07136100  0.01116136     0.62300
F325        F  0.37817572  0.09233315  0.16278295    -0.22800
F326        F  0.33384655  0.06026033  0.13367313    -0.20200
F327        F  0.36199732  0.04314175  0.16542876    -0.19800
F328        F  0.31586771  0.10151797  0.01988759    -0.19900
F329        F  0.31201632  0.05845639  0.04430594    -0.20200
F330        F  0.27270028  0.05782029  0.01204305    -0.22900
C331        C  0.36946238  0.08714153  0.66218774     0.03200
C332        C  0.38194325  0.11533682  0.34807252    -0.13000
C333        C  0.40575269  0.12464065  0.37832622     0.00700
C334        C  0.41766594  0.10563040  0.38607541    -0.11500
C335        C  0.40699969  0.07858578  0.69786687     0.03200
C336        C  0.38202382  0.06896766  0.67056107    -0.10900
H337        H  0.37456096  0.13066248  0.33802356     0.08800
H338        H  0.43692236  0.11316952  0.40740807     0.06300
H339        H  0.37424611  0.04862287  0.65173070     0.06100
C340        C  0.08512758  0.20896884  0.62887625     0.03200
C341        C  0.11118193  0.22170098  0.65527272    -0.13000
C342        C  0.11642471  0.20423654  0.35179211     0.00700
C343        C  0.09391085  0.17393965  0.35634041    -0.11500
C344        C  0.06874238  0.16027755  0.66230823     0.03200
C345        C  0.06393712  0.17808818  0.63274831    -0.10900
H346        H  0.12844118  0.24484350  0.64968383     0.08800
H347        H  0.09581557  0.15986044  0.38129903     0.06300
H348        H  0.04445607  0.16778290  0.61160859     0.06100
C349        C  0.19499590  0.08642678  0.38006513     0.03200
C350        C  0.21120707  0.11237450  0.35334735    -0.13000
C351        C  0.19474349  0.12099772  0.66204047     0.00700
C352        C  0.16296223  0.10667428  0.66509394    -0.11500
C353        C  0.14754663  0.08322810  0.35984798     0.03200
C354        C  0.16335960  0.07270706  0.38430799    -0.10900
H355        H  0.23562219  0.12358428  0.35129838     0.08800
H356        H  0.15136025  0.11492396  0.64485953     0.06300
H357        H  0.15093806  0.05279390  0.40501734     0.06100
C358        C  0.11120155  0.42582301  0.61546704     0.03200
C359        C  0.09575985  0.44162643  0.61995388    -0.13000
C360        C  0.06741116  0.42827186  0.64081708     0.00700
C361        C  0.05723053  0.40031269  0.33125168    -0.11500
C362        C  0.07398253  0.38567874  0.33195131     0.03200
C363        C  0.09969913  0.39780302  0.63749342    -0.10900
H364        H  0.10573336  0.46434100  0.60708404     0.08800
H365        H  0.03591092  0.39075304  0.34955251     0.06300
H366        H  0.11210666  0.38597495  0.63570045     0.06100
C367        C  0.41557997  0.30535242  0.63750842     0.03200
C368        C  0.42396287  0.33586432  0.63421078    -0.13000
C369        C  0.41262988  0.34888645  0.66351253     0.00700
C370        C  0.39110775  0.33054124  0.36703698    -0.11500
C371        C  0.38168922  0.29988721  0.37175400     0.03200
C372        C  0.39382296  0.28760443  0.67087236    -0.11100
H373        H  0.44006209  0.35015388  0.60882613     0.08800
H374        H  0.38101036  0.34043617  0.38765003     0.06300
H375        H  0.38806262  0.26467862  0.67664823     0.06100
C376        C  0.29245981  0.37829083  0.63459962     0.03200
C377        C  0.27717123  0.38949947  0.66094242    -0.13000
C378        C  0.29259972  0.41856663  0.34293743     0.00700
C379        C  0.32377877  0.43527844  0.33649068    -0.11500
C380        C  0.33914343  0.42620532  0.64127827     0.03200
C381        C  0.32343393  0.39714836  0.62459619    -0.10900
H382        H  0.25332202  0.37554560  0.66878696     0.08800
H383        H  0.33663005  0.45626730  0.35383690     0.06300
H384        H  0.33529280  0.38914403  0.60380184     0.06100
O385        O  0.45711080  0.45796113  0.62519510    -0.88300
C386        C  0.43964066  0.99746463  0.39568757     0.87700
Mg387      Mg  0.48952125  0.44407609  0.62797031     1.58100
O388        O  0.47601291  0.04584012  0.63745178    -0.88000
O389        O  0.44352932  0.48481294  0.58617097    -0.75400
C390        C  0.11405316  0.06554084  0.35798517     0.92800
O391        O  0.46163752  0.44784571  0.40040280    -0.75200
O392        O  0.10058505  0.03718825  0.36396572    -0.82700
Mg393      Mg  0.42597321  0.44267555  0.35050399     1.58000
C394        C  0.05172927  0.12752906  0.66083619     0.92700
O395        O  0.38829713  0.43411198  0.63283328    -0.80900
H396        H  0.47800001  0.05544828  0.57291963    -0.06300
C397        C  0.03281393  0.04912350  0.40638494     0.87700
O398        O  0.02414458  0.48604764  0.58935349    -0.75400
O399        O  0.43875630  0.48906225  0.35954659    -0.88200
O400        O  0.02362151  0.11335779  0.67070530    -0.81000
C401        C  0.42647832  0.06454047  0.35919767     0.92800
C402        C  0.37175208  0.44573380  0.63523044     0.92700
Mg403      Mg  0.05482573  0.06685282  0.64336757     1.58000
O404        O  0.09983212  0.07885354  0.34694029    -0.80900
O405        O  0.01738223  0.06134580  0.59720855    -0.75200
O406        O  0.41499379  0.03834474  0.34268681    -0.81000
O407        O  0.41147675  0.39343551  0.34344980    -0.82700
O408        O  0.06372196  0.47130406  0.65564190    -0.81100
C409        C  0.48986717  0.05463601  0.60166947     0.87100
O410        O  0.04303294  0.02107656  0.63576725    -0.88200
O411        O  0.02667434  0.05528187  0.36989552    -0.88300
O412        O  0.04063082  0.02951846  0.41069465    -0.75400
Mg413      Mg  0.43008450  0.01101309  0.63464354     1.58000
O414        O  0.45443111  0.07981032  0.36837296    -0.82700
H415        H  0.45601986  0.45660768  0.55899728    -0.06500
O416        O  0.00308703  0.46571438  0.36055048    -0.88000
H417        H  0.00093291  0.45475499  0.42465615    -0.06300
H418        H  0.05779736  0.02812843  0.57272369    -0.06500
C419        C  0.48956742  0.45636495  0.39661527     0.87100
C420        C  0.45229318  0.46580868  0.58899706     0.87700
C421        C  0.04254077  0.01243436  0.59761550     0.87700
H422        H  0.03067089  0.06010805  0.43554356    -0.06400
O423        O  0.45790822  0.02424129  0.40706394    -0.75500
Mg424      Mg  0.05092449  0.00087167  0.36324214     1.58000
H425        H  0.42676689  0.48185074  0.42375733    -0.06500
C426        C  0.42769628  0.38171440  0.33618748     0.92700
O427        O  0.02248681  0.42938129  0.63469505    -0.82700
C428        C  0.05039969  0.44402086  0.64326761     0.92800
O429        O  0.38292786  0.47395955  0.63725228    -0.82700
Mg430      Mg  0.99221663  0.06784691  0.36975427     1.58200
O431        O  0.45569263  0.39760391  0.32647081    -0.81000
O432        O  0.06670867  0.11448208  0.65297573    -0.82700
C433        C  0.02769770  0.25783233  0.52287672     0.86500
C434        C  0.50267028  0.22909500  0.49782044    -0.53700
C435        C  0.48368418  0.23354508  0.47220084     0.09500
C436        C  0.48881942  0.26584750  0.47554285     0.20400
C437        C  0.04225261  0.28168779  0.48587549    -0.54400
C438        C  0.02271853  0.28696662  0.46196738     0.09600
C439        C  0.50772179  0.26653216  0.54950113    -0.54000
C440        C  0.48816323  0.27157993  0.52593696     0.10100
H441        H  0.50117374  0.20735070  0.49942497     0.14700
H442        H  0.47220504  0.26919834  0.45768922     0.00400
H443        H  0.06642043  0.29313080  0.47897380     0.15000
H444        H  0.50837084  0.26790913  0.58519038     0.14800
C445        C  0.26247244  0.48646781  0.46752469     0.86500
C446        C  0.28850129  0.00692133  0.49853772    -0.53700
C447        C  0.28307222  0.02558422  0.52461184     0.09500
C448        C  0.25064631  0.02039290  0.51860405     0.20400
C449        C  0.23455673  0.46857519  0.49785816    -0.54400
C450        C  0.22837497  0.48567698  0.52569933     0.09600
C451        C  0.25588335  0.00874669  0.44241159    -0.54000
C452        C  0.24925116  0.02612405  0.46884699     0.10100
H453        H  0.30898914  0.00583810  0.50000412     0.14700
H454        H  0.24429613  0.03373345  0.54014708     0.00400
H455        H  0.21956747  0.44449173  0.49556758     0.15000
H456        H  0.25319891  0.00863365  0.40682677     0.14800
C457        C  0.21669274  0.23409739  0.47368255     0.86500
C458        C  0.21080444  0.21101010  0.50997572    -0.53700
C459        C  0.23514481  0.21732810  0.53474914     0.09500
C460        C  0.26386154  0.24755489  0.52207785     0.20400
C461        C  0.22826135  0.26289977  0.50113504    -0.54400
C462        C  0.25354364  0.27127947  0.52636303     0.09600
C463        C  0.24474420  0.23893815  0.44724882    -0.54000
C464        C  0.26941039  0.24559081  0.47192160     0.10100
H465        H  0.18858629  0.19284107  0.51924584     0.14700
H466        H  0.28342404  0.25127835  0.54102845     0.00400
H467        H  0.21410694  0.27247858  0.50685195     0.15000
H468        H  0.24525613  0.23854322  0.41135632     0.14800
C469        C  0.26718709  0.42085554  0.41156812    -0.05700
C470        C  0.27897550  0.43306235  0.36963323     0.00200
C471        C  0.28650359  0.46308183  0.36022094    -0.08400
C472        C  0.28268552  0.47978625  0.39360503    -0.05700
C473        C  0.27019520  0.46761432  0.43581161     0.00200
C474        C  0.26516035  0.43837756  0.44582344    -0.08300
C475        C  0.26218137  0.42592588  0.49218758     0.62100
H476        H  0.26336766  0.39864330  0.41933918     0.12800
H477        H  0.29046773  0.50310184  0.38653997     0.12800
C478        C  0.29975212  0.47851984  0.64810111     0.62300
F479        F  0.28119619  0.41425825  0.49548027    -0.22800
F480        F  0.23268664  0.40326669  0.50003536    -0.20200
F481        F  0.27056408  0.44735209  0.52456101    -0.19800
F482        F  0.29114132  0.45765105  0.61464808    -0.19900
F483        F  0.33089811  0.49481200  0.64965313    -0.20200
F484        F  0.29020156  0.49829579  0.63733101    -0.22900
C485        C  0.28860134  0.32889178  0.62336955    -0.05700
C486        C  0.27729606  0.34796715  0.61412541     0.00200
C487        C  0.25842589  0.34159954  0.57770984    -0.08400
C488        C  0.25500283  0.31903525  0.54837137    -0.05700
C489        C  0.26478859  0.29828406  0.55768277     0.00200
C490        C  0.28215844  0.30363201  0.59715167    -0.08300
C491        C  0.29579974  0.28494233  0.61205594     0.62100
H492        H  0.30372429  0.33490591  0.65099141     0.12800
H493        H  0.24431435  0.31788608  0.51744403     0.12800
C494        C  0.24129036  0.35806957  0.57037570     0.62300
F495        F  0.30891366  0.29341426  0.65320048    -0.22800
F496        F  0.31837836  0.28883553  0.58246084    -0.20200
F497        F  0.27379649  0.25509950  0.61598631    -0.19800
F498        F  0.26084808  0.38869585  0.56972359    -0.19900
F499        F  0.22036644  0.35091255  0.60452610    -0.20200
F500        F  0.22578240  0.35006923  0.53102733    -0.22900
C501        C  0.32561719  0.27920181  0.46813811    -0.05700
C502        C  0.29980569  0.25427973  0.45120749     0.00200
C503        C  0.30366503  0.24007523  0.41324080    -0.08400
C504        C  0.33115086  0.25486529  0.38871301    -0.05700
C505        C  0.35623288  0.28126010  0.40388818     0.00200
C506        C  0.35413994  0.29157579  0.44678565    -0.08300
C507        C  0.38116273  0.31505977  0.47187698     0.62100
H508        H  0.32362716  0.28958042  0.49811265     0.12800
H509        H  0.33281589  0.24588232  0.35704017     0.12800
C510        C  0.28009915  0.20894924  0.39874689     0.62300
F511        F  0.38096316  0.30395548  0.51373461    -0.22800
F512        F  0.37926473  0.34074144  0.47621562    -0.20200
F513        F  0.40843560  0.32241637  0.45148108    -0.19800
F514        F  0.26345920  0.21099892  0.36482418    -0.19900
F515        F  0.26121041  0.19248325  0.43373218    -0.20200
F516        F  0.29396191  0.19345359  0.38359441    -0.22900
C517        C  0.43765175  0.25998892  0.55753015    -0.05700
C518        C  0.46826453  0.28112919  0.54890453     0.00200
C519        C  0.48041527  0.31006000  0.56717562    -0.08400
C520        C  0.46322820  0.31528430  0.59873987    -0.05700
C521        C  0.43236367  0.29456225  0.60783524     0.00200
C522        C  0.41897296  0.26667299  0.58484321    -0.08300
C523        C  0.38542150  0.24380415  0.58794164     0.62100
H524        H  0.42842271  0.23797953  0.54292056     0.12800
H525        H  0.47418479  0.33631167  0.61630826     0.12800
C526        C  0.01194909  0.33637561  0.55521445     0.62300
F527        F  0.37643966  0.22472222  0.55204523    -0.22800
F528        F  0.36852940  0.25788238  0.58813541    -0.20200
F529        F  0.37915579  0.22653792  0.62596206    -0.19800
F530        F  0.01724672  0.36367828  0.57146247    -0.19900
F531        F  0.01383645  0.33855335  0.50947784    -0.20200
F532        F  0.03421489  0.33150796  0.57046811    -0.22900
C533        C  0.03488665  0.33396096  0.35455552    -0.05700
C534        C  0.06327865  0.35909928  0.36205093     0.00200
C535        C  0.07795835  0.36062509  0.40198579    -0.08400
C536        C  0.06299910  0.33737740  0.43374534    -0.05700
C537        C  0.03465661  0.31140502  0.42625928     0.00200
C538        C  0.02061575  0.30961750  0.38485860    -0.08300
C539        C  0.49159514  0.28230683  0.36842344     0.62100
H540        H  0.02358867  0.33380482  0.32452814     0.12800
H541        H  0.07370050  0.33952311  0.46514930     0.12800
C542        C  0.10923214  0.38689037  0.41132227     0.62300
F543        F  0.48862918  0.28221946  0.32301237    -0.22800
F544        F  0.46704574  0.28247337  0.38761427    -0.20200
F545        F  0.49127618  0.25634044  0.37900463    -0.19800
F546        F  0.10976402  0.41368705  0.40513013    -0.19900
F547        F  0.13017454  0.38604883  0.38284057    -0.20200
F548        F  0.11788658  0.38608772  0.45425759    -0.22900
C549        C  0.16628944  0.44567159  0.61442944    -0.05700
C550        C  0.14069857  0.44025089  0.59109506     0.00200
C551        C  0.14401107  0.44989380  0.54616711    -0.08400
C552        C  0.17326184  0.46580385  0.52690358    -0.05700
C553        C  0.19894700  0.47185024  0.55061645     0.00200
C554        C  0.19535710  0.46110485  0.59480366    -0.08300
C555        C  0.22215024  0.46639581  0.62137091     0.62100
H556        H  0.16333847  0.43822209  0.64866983     0.12800
H557        H  0.17634357  0.47334267  0.49270680     0.12800
C558        C  0.11692896  0.44242584  0.51781326     0.62300
F559        F  0.24032254  0.49681300  0.62725366    -0.22800
F560        F  0.23790742  0.45513810  0.59892089    -0.20200
F561        F  0.21385787  0.45274178  0.66281210    -0.19800
F562        F  0.10471786  0.46002160  0.52927006    -0.19900
F563        F  0.09511237  0.41241750  0.52307874    -0.20200
F564        F  0.12506986  0.44775698  0.47344946    -0.22900
C565        C  0.21145291  0.02675473  0.42052376    -0.05700
C566        C  0.23548794  0.04289251  0.44934937     0.00200
C567        C  0.24787748  0.07435983  0.45313160    -0.08400
C568        C  0.23421885  0.08808744  0.42989385    -0.05700
C569        C  0.21035525  0.07170383  0.40073502     0.00200
C570        C  0.20033570  0.04093350  0.39367225    -0.08300
C571        C  0.17620844  0.01852625  0.69376259     0.62100
H572        H  0.20255656  0.00284167  0.41664020     0.12800
H573        H  0.24211095  0.11174000  0.43423758     0.12800
C574        C  0.27597747  0.09351973  0.47975413     0.62300
F575        F  0.18760074  0.00220574  0.67337946    -0.22800
F576        F  0.17269398  0.03512283  0.66088332    -0.20200
F577        F  0.14826297  0.99868642  0.71260637    -0.19800
F578        F  0.29882189  0.08836283  0.46616434    -0.19900
F579        F  0.26979513  0.08663491  0.52429953    -0.20200
F580        F  0.28639763  0.12387615  0.47410949    -0.22900
C581        C  0.20600898  0.17182910  0.64137206    -0.05700
C582        C  0.21148370  0.14830568  0.63308005     0.00200
C583        C  0.22859449  0.14987458  0.59457077    -0.08400
C584        C  0.23889264  0.17490082  0.56549562    -0.05700
C585        C  0.23155710  0.19739991  0.57280601     0.00200
C586        C  0.21488778  0.19585276  0.61174603    -0.08300
C587        C  0.20406582  0.21752416  0.62356220     0.62100
H588        H  0.19301660  0.17064503  0.67032309     0.12800
H589        H  0.25097224  0.17605011  0.53511253     0.12800
C590        C  0.23425993  0.12454613  0.58239046     0.62300
F591        F  0.21427101  0.22912291  0.66509734    -0.22800
F592        F  0.17282107  0.20218695  0.62428009    -0.20200
F593        F  0.21388278  0.24128123  0.59457934    -0.19800
F594        F  0.20724826  0.09747092  0.58243916    -0.19900
F595        F  0.25346864  0.12296881  0.61237068    -0.20200
F596        F  0.24751632  0.12886984  0.54066311    -0.22900
C597        C  0.15470805  0.19503207  0.38544175    -0.05700
C598        C  0.14390705  0.21499912  0.37977209     0.00200
C599        C  0.15641101  0.24118723  0.40582317    -0.08400
C600        C  0.18045904  0.24706480  0.43398911    -0.05700
C601        C  0.18951057  0.22572500  0.44293649     0.00200
C602        C  0.17461716  0.19809068  0.41909633    -0.08300
C603        C  0.17618643  0.17007071  0.43078366     0.62100
H604        H  0.14526811  0.17522955  0.36503125     0.12800
H605        H  0.19216452  0.26900185  0.44835827     0.12800
C606        C  0.14442023  0.26278354  0.40543709     0.62300
F607        F  0.16260790  0.14782320  0.39958552    -0.22800
F608        F  0.16052981  0.15764132  0.47002001    -0.20200
F609        F  0.20556785  0.17652208  0.43405729    -0.19800
F610        F  0.11314000  0.24713268  0.40691023    -0.19900
F611        F  0.15470862  0.28066199  0.36775996    -0.20200
F612        F  0.15403639  0.28145440  0.44179300    -0.22900
C613        C  0.07701073  0.25153914  0.61324454    -0.05700
C614        C  0.07932128  0.22733491  0.59704506     0.00200
C615        C  0.07241317  0.21910622  0.55219286    -0.08400
C616        C  0.05785824  0.23128640  0.52817296    -0.05700
C617        C  0.05085042  0.25215655  0.54684175     0.00200
C618        C  0.06517657  0.26573473  0.58729800    -0.08300
C619        C  0.07212635  0.29661571  0.60166163     0.62100
H620        H  0.08466734  0.25957226  0.64636998     0.12800
H621        H  0.05132990  0.22377476  0.49457793     0.12800
C622        C  0.07914408  0.19707145  0.52871370     0.62300
F623        F  0.10147890  0.31270287  0.61657480    -0.22800
F624        F  0.05272766  0.29421756  0.63582644    -0.20200
F625        F  0.07028441  0.31279883  0.56675448    -0.19800
F626        F  0.05251772  0.17008421  0.52363465    -0.19900
F627        F  0.09938822  0.19199336  0.55138127    -0.20200
F628        F  0.09175597  0.20835602  0.48722916    -0.22900
C629        C  0.43191051  0.19647693  0.44634700    -0.05700
C630        C  0.46340760  0.20970008  0.44080060     0.00200
C631        C  0.47488372  0.19735470  0.40900235    -0.08400
C632        C  0.45456028  0.17121098  0.38692548    -0.05700
C633        C  0.42329763  0.15611225  0.39550081     0.00200
C634        C  0.41145113  0.16969634  0.42422053    -0.08300
C635        C  0.37771236  0.15586790  0.43255244     0.62100
H636        H  0.42351692  0.20647548  0.46991143     0.12800
H637        H  0.46353919  0.16147315  0.36373448     0.12800
C638        C  0.00863508  0.21057365  0.39921948     0.62300
F639        F  0.37144135  0.17075682  0.46539119    -0.22800
F640        F  0.36506641  0.12619042  0.44557528    -0.20200
F641        F  0.36418932  0.15746862  0.39429594    -0.19800
F642        F  0.01765843  0.19110888  0.41461973    -0.19900
F643        F  0.02754127  0.23867211  0.41591795    -0.20200
F644        F  0.01243172  0.21294995  0.35358599    -0.22900
C645        C  0.35784886  0.07520216  0.58326515    -0.05700
C646        C  0.34757328  0.07800274  0.62529874     0.00200
C647        C  0.31660910  0.06860844  0.63158478    -0.08400
C648        C  0.29659831  0.05418183  0.59632560    -0.05700
C649        C  0.30637552  0.04807433  0.55572925     0.00200
C650        C  0.33821147  0.06181013  0.54779985    -0.08300
C651        C  0.35306337  0.06428630  0.50272782     0.62100
H652        H  0.38180582  0.08349255  0.57820830     0.12800
H653        H  0.27296032  0.04661891  0.60119475     0.12800
C654        C  0.30461018  0.07163093  0.34195799     0.62300
F655        F  0.37859237  0.09243397  0.49763190    -0.22800
F656        F  0.33422456  0.06080860  0.46824249    -0.20200
F657        F  0.36197253  0.04311819  0.49974243    -0.19800
F658        F  0.31650488  0.10179910  0.35051053    -0.19900
F659        F  0.31286870  0.05888275  0.37515613    -0.20200
F660        F  0.27339512  0.05798824  0.34301072    -0.22900
C661        C  0.36911182  0.08704624  0.99661543     0.03200
C662        C  0.38187259  0.11542259  0.68273609    -0.13000
C663        C  0.40558780  0.12460182  0.71310919     0.00700
C664        C  0.41733633  0.10545687  0.72098784    -0.11500
C665        C  0.40709158  0.07876759  0.03155161     0.03200
C666        C  0.38198792  0.06906337  0.00445461    -0.10900
H667        H  0.37473736  0.13090184  0.67246396     0.08800
H668        H  0.43662113  0.11294621  0.74224617     0.06300
H669        H  0.37422333  0.04873890  0.98556471     0.06100
C670        C  0.08491181  0.20870064  0.95912858     0.03200
C671        C  0.11094933  0.22186487  0.98554162    -0.13000
C672        C  0.11499778  0.20394684  0.68733743     0.00700
C673        C  0.09276013  0.17348709  0.69116587    -0.11500
C674        C  0.06815983  0.16072287  0.99532385     0.03200
C675        C  0.06362949  0.17790419  0.96414718    -0.10900
H676        H  0.12843382  0.24474234  0.97872560     0.08800
H677        H  0.09484602  0.15922391  0.71558851     0.06300
H678        H  0.04429294  0.16717951  0.94277251     0.06100
C679        C  0.19288813  0.08360058  0.71367466     0.03200
C680        C  0.20962917  0.10967064  0.68733475    -0.13000
C681        C  0.19526900  0.12283431  0.99653949     0.00700
C682        C  0.16348316  0.10833113  0.99997272    -0.11500
C683        C  0.14600814  0.08134044  0.69262765     0.03200
C684        C  0.16126893  0.07030244  0.71734043    -0.10900
H685        H  0.23403286  0.12074851  0.68619505     0.08800
H686        H  0.15166750  0.11644386  0.97995466     0.06300
H687        H  0.14843205  0.05038003  0.73789372     0.06100
C688        C  0.11217382  0.42525044  0.94914826     0.03200
C689        C  0.09687822  0.44123685  0.95304301    -0.13000
C690        C  0.06873800  0.42838467  0.97443437     0.00700
C691        C  0.05582482  0.40030515  0.66200616    -0.11500
C692        C  0.07253671  0.38561590  0.66271731     0.03200
C693        C  0.10067441  0.39753632  0.97220246    -0.10900
H694        H  0.10683984  0.46374730  0.93937026     0.08800
H695        H  0.03456729  0.39084720  0.68044919     0.06300
H696        H  0.11302240  0.38562668  0.97108925     0.06100
C697        C  0.41660218  0.30585026  0.97325698     0.03200
C698        C  0.42509447  0.33635133  0.96973832    -0.13000
C699        C  0.41379885  0.34953496  0.99882331     0.00700
C700        C  0.38918619  0.33055157  0.69294385    -0.11500
C701        C  0.37997745  0.29996729  0.69809227     0.03200
C702        C  0.39486140  0.28826067  0.00678204    -0.11100
H703        H  0.44127050  0.35047107  0.94429144     0.08800
H704        H  0.37891674  0.34041729  0.71322443     0.06300
H705        H  0.38902850  0.26533271  0.01273537     0.06100
C706        C  0.29349885  0.37798657  0.96801323     0.03200
C707        C  0.27776009  0.38886745  0.99409655    -0.13000
C708        C  0.29327210  0.41927552  0.67666630     0.00700
C709        C  0.32430073  0.43616654  0.66897718    -0.11500
C710        C  0.33981965  0.42605607  0.97570263     0.03200
C711        C  0.32449237  0.39710079  0.95867195    -0.10900
H712        H  0.25381363  0.37476469  0.00113897     0.08800
H713        H  0.33725757  0.45741800  0.68564961     0.06300
H714        H  0.33663403  0.38944365  0.93781339     0.06100
O715        O  0.45765480  0.45826963  0.95815745    -0.88300
C716        C  0.43899823  0.99680778  0.72783545     0.87700
Mg717      Mg  0.49005889  0.44433819  0.96090183     1.58100
O718        O  0.47645234  0.04575551  0.97294677    -0.88000
O719        O  0.44373113  0.48496306  0.91936401    -0.75400
C720        C  0.11252936  0.06408937  0.69008596     0.92800
O721        O  0.46080065  0.44709097  0.73043418    -0.75200
O722        O  0.09871870  0.03567004  0.69529020    -0.82700
Mg723      Mg  0.42557568  0.44290921  0.68034928     1.58000
C724        C  0.05146322  0.12794399  0.99494611     0.92700
O725        O  0.38916313  0.43469182  0.96614793    -0.80900
H726        H  0.47826973  0.05509976  0.90834354    -0.06300
C727        C  0.03091538  0.04735309  0.73746052     0.87700
O728        O  0.02481174  0.48567056  0.92210917    -0.75400
O729        O  0.43855406  0.48916280  0.69098161    -0.88200
O730        O  0.02341257  0.11363492  0.00516652    -0.81000
C731        C  0.42587174  0.06424008  0.69373156     0.92800
C732        C  0.37233646  0.44595565  0.96936424     0.92700
Mg733      Mg  0.05515090  0.06741619  0.97880424     1.58000
O734        O  0.09869652  0.07782915  0.67918541    -0.80900
O735        O  0.01765846  0.06148294  0.93247644    -0.75200
O736        O  0.41422089  0.03805649  0.67711905    -0.81000
O737        O  0.41066908  0.39380746  0.67152230    -0.82700
O738        O  0.06546543  0.47179072  0.98840034    -0.81100
C739        C  0.49023299  0.05449713  0.93711339     0.87100
O740        O  0.04359436  0.02159345  0.97179367    -0.88200
O741        O  0.02527315  0.05413919  0.70107034    -0.88300
O742        O  0.03842573  0.02750117  0.74132807    -0.75400
Mg743      Mg  0.43073308  0.01062923  0.97020521     1.58000
O744        O  0.45390380  0.07950229  0.70236280    -0.82700
H745        H  0.45634019  0.45689922  0.89196621    -0.06500
O746        O  0.00190275  0.46594188  0.69204613    -0.88000
H747        H  0.99883710  0.45442409  0.75606088    -0.06300
H748        H  0.05787670  0.02812350  0.90853254    -0.06500
C749        C  0.48876580  0.45569806  0.72686746     0.87100
C750        C  0.45267012  0.46607596  0.92203570     0.87700
C751        C  0.04286012  0.01261615  0.93379462     0.87700
H752        H  0.02852100  0.05794758  0.76689872    -0.06400
O753        O  0.45743392  0.02351909  0.73937456    -0.75500
Mg754      Mg  0.04906273  0.99965587  0.69287689     1.58000
H755        H  0.42612750  0.48094006  0.75497506    -0.06500
C756        C  0.42662061  0.38189162  0.66365316     0.92700
O757        O  0.02399539  0.42974265  0.96844703    -0.82700
C758        C  0.05196200  0.44437814  0.97656848     0.92800
O759        O  0.38321390  0.47413207  0.97145035    -0.82700
Mg760      Mg  0.99093407  0.06677232  0.70125772     1.58200
O761        O  0.45473429  0.39767455  0.65453250    -0.81000
O762        O  0.06667383  0.11506851  0.98756715    -0.82700
C763        C  0.02747436  0.25752568  0.85312728     0.86500
C764        C  0.50305723  0.22964922  0.83049900    -0.53700
C765        C  0.48367224  0.23398047  0.80570919     0.09500
C766        C  0.48868861  0.26621691  0.80947339     0.20400
C767        C  0.04165565  0.28163808  0.81638556    -0.54400
C768        C  0.02187317  0.28708178  0.79337184     0.09600
C769        C  0.50885640  0.26715529  0.88259123    -0.54000
C770        C  0.48877595  0.27201401  0.86007421     0.10100
H771        H  0.50153074  0.20789331  0.83186860     0.14700
H772        H  0.47170204  0.26941050  0.79250067     0.00400
H773        H  0.06573408  0.29299079  0.80881094     0.15000
H774        H  0.51026676  0.26872483  0.91828676     0.14800
C775        C  0.26393328  0.48825675  0.80056791     0.86500
C776        C  0.28817637  0.00659540  0.83322921    -0.53700
C777        C  0.28250912  0.02504289  0.85948237     0.09500
C778        C  0.24980810  0.01922682  0.85407807     0.20400
C779        C  0.23590861  0.46982158  0.83049000    -0.54400
C780        C  0.22923261  0.48638260  0.85866994     0.09600
C781        C  0.25454389  0.00731077  0.77784708    -0.54000
C782        C  0.24779179  0.02454648  0.80432586     0.10100
H783        H  0.30891034  0.00594595  0.83429690     0.14700
H784        H  0.24335167  0.03248206  0.87565809     0.00400
H785        H  0.22127859  0.44570109  0.82779168     0.15000
H786        H  0.25162593  0.00700286  0.74228102     0.14800
C787        C  0.21722159  0.23464189  0.80564700     0.86500
C788        C  0.21129512  0.21184957  0.84234866    -0.53700
C789        C  0.23573765  0.21789913  0.86662516     0.09500
C790        C  0.26470053  0.24772345  0.85305617     0.20400
C791        C  0.22965258  0.26385044  0.83242716    -0.54400
C792        C  0.25506184  0.27196436  0.85726643     0.09600
C793        C  0.24477571  0.23871162  0.77867080    -0.54000
C794        C  0.26961050  0.24525523  0.80280960     0.10100
H795        H  0.18893368  0.19445596  0.85273622     0.14700
H796        H  0.28438176  0.25122797  0.87148187     0.00400
H797        H  0.21608186  0.27407047  0.83802625     0.15000
H798        H  0.24495509  0.23807977  0.74277548     0.14800
C799        C  0.26968150  0.42278343  0.74640787    -0.05700
C800        C  0.27995063  0.43397231  0.70357932     0.00200
C801        C  0.28643859  0.46350848  0.69286036    -0.08400
C802        C  0.28276446  0.48065771  0.72572439    -0.05700
C803        C  0.27181144  0.46946750  0.76891271     0.00200
C804        C  0.26803044  0.44086343  0.78008677    -0.08300
C805        C  0.26611844  0.42944070  0.82686737     0.62100
H806        H  0.26668988  0.40100491  0.75506405     0.12800
H807        H  0.28976206  0.50363662  0.71750519     0.12800
C808        C  0.30122556  0.47886701  0.98321981     0.62300
F809        F  0.28593833  0.41873499  0.83017402    -0.22800
F810        F  0.23699886  0.40636119  0.83584694    -0.20200
F811        F  0.27428487  0.45126347  0.85851571    -0.19800
F812        F  0.29467994  0.45881030  0.94904372    -0.19900
F813        F  0.33217143  0.49610298  0.98743455    -0.20200
F814        F  0.29096806  0.49794945  0.97162626    -0.22900
C815        C  0.28998310  0.32883831  0.95518434    -0.05700
C816        C  0.27875841  0.34804163  0.94629078     0.00200
C817        C  0.26079511  0.34251354  0.90896541    -0.08400
C818        C  0.25751395  0.32017446  0.87925131    -0.05700
C819        C  0.26681255  0.29906258  0.88853166     0.00200
C820        C  0.28408256  0.30410861  0.92801839    -0.08300
C821        C  0.29827117  0.28569753  0.94176606     0.62100
H822        H  0.30464993  0.33438133  0.98328725     0.12800
H823        H  0.24726900  0.31940661  0.84804388     0.12800
C824        C  0.24456014  0.35977753  0.90091510     0.62300
F825        F  0.31249308  0.29455420  0.98210323    -0.22800
F826        F  0.32014115  0.28952088  0.91082793    -0.20200
F827        F  0.27644084  0.25583499  0.94656782    -0.19800
F828        F  0.26467261  0.39026728  0.90176768    -0.19900
F829        F  0.22278829  0.35247519  0.93381516    -0.20200
F830        F  0.23026069  0.35285910  0.86057538    -0.22900
C831        C  0.32550112  0.27984870  0.79653524    -0.05700
C832        C  0.29978289  0.25410848  0.78122957     0.00200
C833        C  0.30333272  0.23948720  0.74355940    -0.08400
C834        C  0.33024763  0.25441393  0.71770384    -0.05700
C835        C  0.35516918  0.28154875  0.73126995     0.00200
C836        C  0.35360178  0.29254599  0.77388596    -0.08300
C837        C  0.38076776  0.31730747  0.79718499     0.62100
H838        H  0.32370890  0.29063044  0.82619978     0.12800
H839        H  0.33156131  0.24495030  0.68628874     0.12800
C840        C  0.27996023  0.20790004  0.73061356     0.62300
F841        F  0.38146261  0.30798939  0.83994497    -0.22800
F842        F  0.37832593  0.34278214  0.79917212    -0.20200
F843        F  0.40788559  0.32437571  0.77651711    -0.19800
F844        F  0.26263700  0.20889877  0.69684732    -0.19900
F845        F  0.26166553  0.19193983  0.76640640    -0.20200
F846        F  0.29409349  0.19255880  0.71592586    -0.22900
C847        C  0.43813629  0.26106762  0.89115305    -0.05700
C848        C  0.46915808  0.28159150  0.88417848     0.00200
C849        C  0.48177386  0.31004057  0.90431093    -0.08400
C850        C  0.46439118  0.31528999  0.93555609    -0.05700
C851        C  0.43330376  0.29497841  0.94352713     0.00200
C852        C  0.41959935  0.26775022  0.91893148    -0.08300
C853        C  0.38572662  0.24603549  0.92032966     0.62100
H854        H  0.42849897  0.23954087  0.87493013     0.12800
H855        H  0.47540357  0.33595589  0.95403748     0.12800
C856        C  0.01360751  0.33562492  0.89135596     0.62300
F857        F  0.37687096  0.22655803  0.88492704    -0.22800
F858        F  0.37026525  0.26153379  0.91808142    -0.20200
F859        F  0.37754033  0.22898808  0.95882163    -0.19800
F860        F  0.01977487  0.36284007  0.90910041    -0.19900
F861        F  0.01574344  0.33880879  0.84572830    -0.20200
F862        F  0.03518596  0.32949911  0.90584398    -0.22900
C863        C  0.03310202  0.33418668  0.68622803    -0.05700
C864        C  0.06183796  0.35905345  0.69294855     0.00200
C865        C  0.07700070  0.36033955  0.73229271    -0.08400
C866        C  0.06211519  0.33727618  0.76435440    -0.05700
C867        C  0.03346304  0.31153174  0.75761295     0.00200
C868        C  0.01893237  0.30990136  0.71669939    -0.08300
C869        C  0.48981688  0.28219428  0.70191056     0.62100
H870        H  0.02152117  0.33416762  0.65657431     0.12800
H871        H  0.07320653  0.33932460  0.79536066     0.12800
C872        C  0.10883542  0.38597027  0.74060831     0.62300
F873        F  0.48556339  0.28232816  0.65680939    -0.22800
F874        F  0.46563543  0.28198016  0.72306995    -0.20200
F875        F  0.49004647  0.25629911  0.71113671    -0.19800
F876        F  0.11043533  0.41328299  0.73441534    -0.19900
F877        F  0.12886770  0.38400891  0.71153404    -0.20200
F878        F  0.11791417  0.38509744  0.78324271    -0.22900
C879        C  0.16729821  0.44488124  0.94727256    -0.05700
C880        C  0.14153963  0.43934620  0.92428046     0.00200
C881        C  0.14465773  0.44903840  0.87936965    -0.08400
C882        C  0.17387307  0.46547872  0.86005853    -0.05700
C883        C  0.19973901  0.47184393  0.88357721     0.00200
C884        C  0.19632507  0.46067231  0.92748540    -0.08300
C885        C  0.22328544  0.46601893  0.95370393     0.62100
H886        H  0.16453536  0.43736156  0.98145230     0.12800
H887        H  0.17676569  0.47321939  0.82598525     0.12800
C888        C  0.11744555  0.44117749  0.85105598     0.62300
F889        F  0.24113489  0.49639551  0.96024995    -0.22800
F890        F  0.23936513  0.45534266  0.93065260    -0.20200
F891        F  0.21516450  0.45190668  0.99483147    -0.19800
F892        F  0.10564163  0.45931620  0.86132752    -0.19900
F893        F  0.09538800  0.41137870  0.85765318    -0.20200
F894        F  0.12532018  0.44535576  0.80652992    -0.22900
C895        C  0.20904523  0.02418197  0.75703962    -0.05700
C896        C  0.23354400  0.04086107  0.78488937     0.00200
C897        C  0.24604306  0.07238937  0.78735742    -0.08400
C898        C  0.23207804  0.08568896  0.76388000    -0.05700
C899        C  0.20788460  0.06884092  0.73542575     0.00200
C900        C  0.19760661  0.03786922  0.72974525    -0.08300
C901        C  0.17728313  0.02096614  0.02461004     0.62100
H902        H  0.20014562  0.00020857  0.75404731     0.12800
H903        H  0.24016590  0.10945310  0.76718771     0.12800
C904        C  0.27475260  0.09206489  0.81243621     0.62300
F905        F  0.18776986  0.00394440  0.00398598    -0.22800
F906        F  0.17485260  0.03843778  0.99200568    -0.20200
F907        F  0.14898188  0.00180133  0.04299718    -0.19800
F908        F  0.29752772  0.08736385  0.79693131    -0.19900
F909        F  0.26993252  0.08532421  0.85715424    -0.20200
F910        F  0.28448747  0.12228986  0.80698396    -0.22900
C911        C  0.20672065  0.17361576  0.97450496    -0.05700
C912        C  0.21173708  0.14973637  0.96672972     0.00200
C913        C  0.22821770  0.15049808  0.92791342    -0.08400
C914        C  0.23863084  0.17521952  0.89823901    -0.05700
C915        C  0.23197417  0.19821911  0.90516559     0.00200
C916        C  0.21566493  0.19735132  0.94422249    -0.08300
C917        C  0.20531442  0.21948127  0.95545418     0.62100
H918        H  0.19410024  0.17299206  0.00377341     0.12800
H919        H  0.25033806  0.17577310  0.86773123     0.12800
C920        C  0.23315227  0.12463399  0.91617742     0.62300
F921        F  0.21597347  0.23163992  0.99657315    -0.22800
F922        F  0.17407701  0.20445348  0.95678138    -0.20200
F923        F  0.21509033  0.24283418  0.92572012    -0.19800
F924        F  0.20599553  0.09770780  0.91836942    -0.19900
F925        F  0.25314236  0.12358660  0.94519352    -0.20200
F926        F  0.24507794  0.12776127  0.87372238    -0.22900
C927        C  0.15367060  0.19488754  0.71983001    -0.05700
C928        C  0.14263821  0.21471161  0.71489584     0.00200
C929        C  0.15551260  0.24104218  0.74064913    -0.08400
C930        C  0.18022586  0.24726759  0.76754057    -0.05700
C931        C  0.18962559  0.22611248  0.77575980     0.00200
C932        C  0.17426762  0.19823534  0.75251139    -0.08300
C933        C  0.17664801  0.17049789  0.76319463     0.62100
H934        H  0.14413319  0.17510484  0.69938943     0.12800
H935        H  0.19206995  0.26930148  0.78155638     0.12800
C936        C  0.14339832  0.26254704  0.74126663     0.62300
F937        F  0.16151601  0.14762303  0.73331002    -0.22800
F938        F  0.16314134  0.15853886  0.80379665    -0.20200
F939        F  0.20625793  0.17731122  0.76288584    -0.19800
F940        F  0.11212032  0.24692114  0.74196805    -0.19900
F941        F  0.15411342  0.28126297  0.70446361    -0.20200
F942        F  0.15254059  0.28032314  0.77859888    -0.22900
C943        C  0.07738958  0.25142380  0.94244284    -0.05700
C944        C  0.07905646  0.22675461  0.92676714     0.00200
C945        C  0.07164396  0.21806013  0.88216228    -0.08400
C946        C  0.05719833  0.23035415  0.85806166    -0.05700
C947        C  0.05076714  0.25171976  0.87644223     0.00200
C948        C  0.06562399  0.26562922  0.91643273    -0.08300
C949        C  0.07321197  0.29686429  0.92998536     0.62100
H950        H  0.08541948  0.25976551  0.97532185     0.12800
H951        H  0.05042548  0.22263554  0.82461787     0.12800
C952        C  0.07807505  0.19578995  0.85874846     0.62300
F953        F  0.10217823  0.31230995  0.94646114    -0.22800
F954        F  0.05333580  0.29531206  0.96279248    -0.20200
F955        F  0.07285052  0.31320253  0.89407014    -0.19800
F956        F  0.05114459  0.16943853  0.85178594    -0.19900
F957        F  0.09702714  0.18931856  0.88229987    -0.20200
F958        F  0.09202425  0.20764251  0.81813980    -0.22900
C959        C  0.43186170  0.19688988  0.78008991    -0.05700
C960        C  0.46333578  0.21014136  0.77437390     0.00200
C961        C  0.47478539  0.19759698  0.74286814    -0.08400
C962        C  0.45447773  0.17111879  0.72149429    -0.05700
C963        C  0.42322301  0.15610519  0.73009811     0.00200
C964        C  0.41139443  0.16991949  0.75840171    -0.08300
C965        C  0.37766760  0.15617575  0.76675650     0.62100
H966        H  0.42350072  0.20702954  0.80345294     0.12800
H967        H  0.46344291  0.16114775  0.69871603     0.12800
C968        C  0.00797628  0.21104836  0.72993313     0.62300
F969        F  0.37147252  0.17108701  0.79965113    -0.22800
F970        F  0.36490814  0.12648611  0.77972195    -0.20200
F971        F  0.36417907  0.15785266  0.72851762    -0.19800
F972        F  0.01787047  0.19278067  0.74736934    -0.19900
F973        F  0.02637448  0.23989930  0.74448310    -0.20200
F974        F  0.01141759  0.21185398  0.68426946    -0.22900
C975        C  0.35727866  0.07556649  0.91764778    -0.05700
C976        C  0.34701583  0.07784818  0.95996659     0.00200
C977        C  0.31593259  0.06783307  0.96666512    -0.08400
C978        C  0.29586238  0.05330698  0.93148984    -0.05700
C979        C  0.30571153  0.04770120  0.89055861     0.00200
C980        C  0.33755460  0.06202605  0.88230472    -0.08300
C981        C  0.35228781  0.06487629  0.83703980     0.62100
H982        H  0.38129585  0.08431678  0.91229256     0.12800
H983        H  0.27213306  0.04521160  0.93669507     0.12800
C984        C  0.30462710  0.07268049  0.67576994     0.62300
F985        F  0.37753261  0.09322160  0.83198660    -0.22800
F986        F  0.33317267  0.06118340  0.80285017    -0.20200
F987        F  0.36163595  0.04407036  0.83355354    -0.19800
F988        F  0.31715122  0.10295622  0.68409589    -0.19900
F989        F  0.31214726  0.05956079  0.70936599    -0.20200
F990        F  0.27348468  0.05975993  0.67630231    -0.22900
C991        C  0.37048891  0.58694681  0.32828150     0.03200
C992        C  0.38246221  0.61567103  0.01718819    -0.13000
C993        C  0.40636502  0.62494741  0.04723876     0.00700
C994        C  0.41851256  0.60606682  0.05443926    -0.11500
C995        C  0.40829860  0.57879174  0.36394269     0.03200
C996        C  0.38327864  0.56896607  0.33663973    -0.10900
H997        H  0.37488908  0.63094281  0.00767036     0.08800
H998        H  0.43785034  0.61361922  0.07560590     0.06300
H999        H  0.37554255  0.54855176  0.31799443     0.06100
C1000       C  0.08489055  0.70868724  0.29481941     0.03200
C1001       C  0.11100236  0.72134897  0.32102278    -0.13000
C1002       C  0.11580939  0.70515668  0.01790267     0.00700
C1003       C  0.09367512  0.67465924  0.02171341    -0.11500
C1004       C  0.06818882  0.66007865  0.32885367     0.03200
C1005       C  0.06354239  0.67784147  0.29892188    -0.10900
H1006       H  0.12844082  0.74436331  0.31501819     0.08800
H1007       H  0.09577404  0.66051283  0.04633794     0.06300
H1008       H  0.04402643  0.66755600  0.27786249     0.06100
C1009       C  0.19467548  0.58626359  0.04725818     0.03200
C1010       C  0.21126285  0.61230029  0.02072972    -0.13000
C1011       C  0.19483553  0.62263909  0.32916064     0.00700
C1012       C  0.16306362  0.60800836  0.33272870    -0.11500
C1013       C  0.14761713  0.58354669  0.02593658     0.03200
C1014       C  0.16305229  0.57286262  0.05096011    -0.10900
H1015       H  0.23567171  0.62338488  0.01920086     0.08800
H1016       H  0.15112097  0.61596094  0.31267602     0.06300
H1017       H  0.15031526  0.55311618  0.07185804     0.06100
C1018       C  0.11192337  0.92532984  0.28325713     0.03200
C1019       C  0.09674236  0.94133077  0.28845708    -0.13000
C1020       C  0.06844119  0.92802436  0.30942140     0.00700
C1021       C  0.05604641  0.90030620  0.99735948    -0.11500
C1022       C  0.07261593  0.88550589  0.99875041     0.03200
C1023       C  0.10030197  0.89715917  0.30491401    -0.10900
H1024       H  0.10685673  0.96414909  0.27597371     0.08800
H1025       H  0.03473486  0.89103642  0.01562060     0.06300
H1026       H  0.11257495  0.88520552  0.30272744     0.06100
C1027       C  0.41680900  0.80555768  0.30870625     0.03200
C1028       C  0.42482659  0.83592288  0.30436558    -0.13000
C1029       C  0.41332618  0.84915192  0.33299797     0.00700
C1030       C  0.39129277  0.83100949  0.03198856    -0.11500
C1031       C  0.38199271  0.80040233  0.03706106     0.03200
C1032       C  0.39514778  0.78815633  0.34241166    -0.11100
H1033       H  0.44074075  0.84995562  0.27862035     0.08800
H1034       H  0.38111068  0.84092483  0.05236166     0.06300
H1035       H  0.38952514  0.76536551  0.34897756     0.06100
C1036       C  0.29328303  0.87783425  0.30179463     0.03200
C1037       C  0.27789874  0.88884287  0.32826503    -0.13000
C1038       C  0.29304527  0.91782632  0.00931090     0.00700
C1039       C  0.32415201  0.93487463  0.00243917    -0.11500
C1040       C  0.33975558  0.92587093  0.30823979     0.03200
C1041       C  0.32418389  0.89681841  0.29160741    -0.10900
H1042       H  0.25402659  0.87480465  0.33591756     0.08800
H1043       H  0.33685684  0.95599716  0.01951287     0.06300
H1044       H  0.33603658  0.88898485  0.27045975     0.06100
O1045       O  0.45763960  0.95802796  0.29223708    -0.88300
C1046       C  0.44110123  0.49794888  0.06276478     0.87700
Mg1047     Mg  0.49000937  0.94406552  0.29597578     1.58100
O1048       O  0.47695732  0.54496373  0.30561659    -0.88000
O1049       O  0.44413676  0.98473932  0.25259831    -0.75400
C1050       C  0.11417487  0.56593087  0.02323250     0.92800
O1051       O  0.46095317  0.94785534  0.06614154    -0.75200
O1052       O  0.10066711  0.53755358  0.02888920    -0.82700
Mg1053     Mg  0.42575616  0.94297996  0.01555557     1.58000
C1054       C  0.05121662  0.62730387  0.32776654     0.92700
O1055       O  0.38908218  0.93449101  0.29819211    -0.80900
H1056       H  0.47827119  0.55342561  0.24076841    -0.06300
C1057       C  0.03294297  0.54940172  0.07070896     0.87700
O1058       O  0.02460215  0.98525839  0.25768104    -0.75400
O1059       O  0.43820307  0.98922966  0.02538331    -0.88200
O1060       O  0.02316314  0.61308310  0.33799736    -0.81000
C1061       C  0.42729315  0.56498770  0.02709941     0.92800
C1062       C  0.37221537  0.94572163  0.30122129     0.92700
Mg1063     Mg  0.05482028  0.56669615  0.31188662     1.58000
O1064       O  0.10007811  0.57931299  0.01185396    -0.80900
O1065       O  0.01714241  0.56041746  0.26566174    -0.75200
O1066       O  0.41559858  0.53866758  0.01097686    -0.81000
O1067       O  0.41142136  0.89378100  0.00796996    -0.82700
O1068       O  0.06506687  0.97126973  0.32418820    -0.81100
C1069       C  0.49045285  0.55317655  0.26949563     0.87100
O1070       O  0.04340325  0.52089262  0.30552202    -0.88200
O1071       O  0.02692903  0.55565560  0.03419600    -0.88300
O1072       O  0.04066950  0.52973468  0.07504675    -0.75400
Mg1073     Mg  0.43103911  0.51002440  0.30407940     1.58000
O1074       O  0.45535273  0.58028084  0.03563321    -0.82700
H1075       H  0.45707017  0.95670833  0.22601387    -0.06500
O1076       O  0.00290077  0.96637118  0.02652522    -0.88000
H1077       H  0.00053058  0.95560491  0.09075428    -0.06300
H1078       H  0.05797222  0.52739998  0.24240404    -0.06500
C1079       C  0.48893434  0.95650552  0.06271710     0.87100
C1080       C  0.45305628  0.96585967  0.25583856     0.87700
C1081       C  0.04291521  0.51188252  0.26762476     0.87700
H1082       H  0.03072187  0.56033129  0.09987521    -0.06400
O1083       O  0.45950046  0.52478012  0.07377650    -0.75500
Mg1084     Mg  0.05111380  0.50124163  0.02758163     1.58000
H1085       H  0.42539336  0.98111668  0.08924047    -0.06500
C1086       C  0.42775626  0.88215498  0.00098564     0.92700
O1087       O  0.02360631  0.92929871  0.30395379    -0.82700
C1088       C  0.05157253  0.94390741  0.31212628     0.92800
O1089       O  0.38306390  0.97390393  0.30294455    -0.82700
Mg1090     Mg  0.99246994  0.56813215  0.03423877     1.58200
O1091       O  0.45579345  0.89816535  0.99163529    -0.81000
O1092       O  0.06628202  0.61430902  0.32018844    -0.82700
C1093       C  0.02777577  0.75816879  0.18989396     0.86500
C1094       C  0.50345695  0.72966894  0.16512910    -0.53700
C1095       C  0.48401342  0.73410476  0.14068570     0.09500
C1096       C  0.48901390  0.76632329  0.14499493     0.20400
C1097       C  0.04175916  0.78226237  0.15310538    -0.54400
C1098       C  0.02177043  0.78732802  0.12996508     0.09600
C1099       C  0.50921277  0.76676685  0.21794244    -0.54000
C1100       C  0.48909136  0.77172635  0.19568331     0.10100
H1101       H  0.50198573  0.70792645  0.16608679     0.14700
H1102       H  0.47203685  0.76962873  0.12812825     0.00400
H1103       H  0.06588131  0.79403239  0.14574844     0.15000
H1104       H  0.51069727  0.76818050  0.25361871     0.14800
C1105       C  0.26265209  0.98589994  0.13351299     0.86500
C1106       C  0.28840677  0.50678583  0.16517892    -0.53700
C1107       C  0.28315393  0.52543479  0.19156970     0.09500
C1108       C  0.25063446  0.52015814  0.18626088     0.20400
C1109       C  0.23492217  0.96789136  0.16417653    -0.54400
C1110       C  0.22859347  0.98492194  0.19194568     0.09600
C1111       C  0.25513881  0.50828227  0.10988165    -0.54000
C1112       C  0.24873816  0.52573086  0.13654802     0.10100
H1113       H  0.30891150  0.50571583  0.16620220     0.14700
H1114       H  0.24447934  0.53356598  0.20801493     0.00400
H1115       H  0.22005742  0.94379541  0.16202532     0.15000
H1116       H  0.25218630  0.50807367  0.07434593     0.14800
C1117       C  0.21698627  0.73525143  0.13842037     0.86500
C1118       C  0.21062152  0.71214023  0.17488953    -0.53700
C1119       C  0.23478103  0.71797748  0.19971903     0.09500
C1120       C  0.26386889  0.74786272  0.18699864     0.20400
C1121       C  0.22911805  0.76421681  0.16570842    -0.54400
C1122       C  0.25421208  0.77204610  0.19117345     0.09600
C1123       C  0.24490840  0.73952988  0.11208488    -0.54000
C1124       C  0.26944370  0.74585863  0.13690053     0.10100
H1125       H  0.18817757  0.69458571  0.18459229     0.14700
H1126       H  0.28330043  0.75120255  0.20591700     0.00400
H1127       H  0.21553794  0.77444326  0.17102590     0.15000
H1128       H  0.24551792  0.73910996  0.07618150     0.14800
C1129       C  0.26791420  0.92037314  0.07815519    -0.05700
C1130       C  0.27929425  0.93228658  0.03594307     0.00200
C1131       C  0.28644996  0.96218169  0.02615678    -0.08400
C1132       C  0.28258810  0.97898723  0.05937523    -0.05700
C1133       C  0.27048604  0.96706720  0.10184202     0.00200
C1134       C  0.26588007  0.93803665  0.11221929    -0.08300
C1135       C  0.26338062  0.92610095  0.15881955     0.62100
H1136       H  0.26438250  0.89830743  0.08619982     0.12800
H1137       H  0.29007507  0.00220733  0.05197298     0.12800
C1138       C  0.30066628  0.97815917  0.31576364     0.62300
F1139       F  0.28179478  0.91372759  0.16183637    -0.22800
F1140       F  0.23379559  0.90412709  0.16793814    -0.20200
F1141       F  0.27287471  0.94810677  0.19048567    -0.19800
F1142       F  0.29283057  0.95757494  0.28202269    -0.19900
F1143       F  0.33175275  0.99487383  0.31825531    -0.20200
F1144       F  0.29077443  0.99763024  0.30469824    -0.22900
C1145       C  0.28911127  0.82845833  0.28951895    -0.05700
C1146       C  0.27812333  0.84782008  0.28060066     0.00200
C1147       C  0.25985746  0.84226471  0.24368672    -0.08400
C1148       C  0.25656568  0.82006499  0.21375564    -0.05700
C1149       C  0.26576903  0.79885455  0.22286464     0.00200
C1150       C  0.28276935  0.80354038  0.26259027    -0.08300
C1151       C  0.29617813  0.78454858  0.27706499     0.62100
H1152       H  0.30390474  0.83398977  0.31746824     0.12800
H1153       H  0.24638155  0.81951279  0.18259042     0.12800
C1154       C  0.24318194  0.85920297  0.23648691     0.62300
F1155       F  0.30937006  0.79270835  0.31819860    -0.22800
F1156       F  0.31865179  0.78837684  0.24730089    -0.20200
F1157       F  0.27399174  0.75477293  0.28078266    -0.19800
F1158       F  0.26298686  0.88978131  0.23708498    -0.19900
F1159       F  0.22178417  0.85168334  0.27003877    -0.20200
F1160       F  0.22831051  0.85201824  0.19661289    -0.22900
C1161       C  0.32554779  0.78002876  0.13302336    -0.05700
C1162       C  0.29995399  0.75471455  0.11642729     0.00200
C1163       C  0.30412137  0.74029041  0.07903342    -0.08400
C1164       C  0.33167435  0.75508410  0.05461319    -0.05700
C1165       C  0.35654583  0.78184095  0.06937002     0.00200
C1166       C  0.35415438  0.79252003  0.11187334    -0.08300
C1167       C  0.38092036  0.81656893  0.13675972     0.62100
H1168       H  0.32329668  0.79061343  0.16259657     0.12800
H1169       H  0.33352276  0.74582911  0.02329742     0.12800
C1170       C  0.28074618  0.70900544  0.06492439     0.62300
F1171       F  0.38061790  0.80619183  0.17920036    -0.22800
F1172       F  0.37869848  0.84213979  0.13966802    -0.20200
F1173       F  0.40836454  0.82387591  0.11701216    -0.19800
F1174       F  0.26444976  0.71072051  0.03021564    -0.19900
F1175       F  0.26149466  0.69283798  0.09977076    -0.20200
F1176       F  0.29481588  0.69342898  0.05106364    -0.22900
C1177       C  0.43897433  0.75965345  0.22974296    -0.05700
C1178       C  0.46936957  0.78101469  0.21999853     0.00200
C1179       C  0.48147632  0.81006778  0.23783226    -0.08400
C1180       C  0.46434018  0.81547466  0.26932406    -0.05700
C1181       C  0.43364202  0.79457296  0.27935910     0.00200
C1182       C  0.42039214  0.76627278  0.25745326    -0.08300
C1183       C  0.38705546  0.74287738  0.26210724     0.62100
H1184       H  0.42984247  0.73750964  0.21563784     0.12800
H1185       H  0.47525604  0.83673213  0.28629253     0.12800
C1186       C  0.01228426  0.83603930  0.22510039     0.62300
F1187       F  0.37783904  0.72284077  0.22738646    -0.22800
F1188       F  0.36955167  0.75630034  0.26175513    -0.20200
F1189       F  0.38182547  0.72668479  0.30102169    -0.19800
F1190       F  0.01814947  0.86320670  0.24267727    -0.19900
F1191       F  0.01346888  0.83881858  0.17944569    -0.20200
F1192       F  0.03460176  0.83071125  0.23856923    -0.22900
C1193       C  0.03333669  0.83401155  0.02228965    -0.05700
C1194       C  0.06173825  0.85921873  0.02956335     0.00200
C1195       C  0.07623554  0.86117652  0.06985885    -0.08400
C1196       C  0.06136559  0.83803930  0.10181261    -0.05700
C1197       C  0.03316501  0.81187964  0.09442369     0.00200
C1198       C  0.01894487  0.80994945  0.05310900    -0.08300
C1199       C  0.49040004  0.78349937  0.03813750     0.62100
H1200       H  0.02212332  0.83365073  0.99204720     0.12800
H1201       H  0.07206677  0.84035574  0.13327386     0.12800
C1202       C  0.10727900  0.88776090  0.07932319     0.62300
F1203       F  0.48650647  0.78356004  0.99294446    -0.22800
F1204       F  0.46644635  0.78398731  0.05889215    -0.20200
F1205       F  0.48988443  0.75731096  0.04784718    -0.19800
F1206       F  0.10746488  0.91433469  0.07239362    -0.19900
F1207       F  0.12856251  0.88703620  0.05146837    -0.20200
F1208       F  0.11570986  0.88735262  0.12251939    -0.22900
C1209       C  0.16698023  0.94500386  0.28136211    -0.05700
C1210       C  0.14126797  0.93969073  0.25846350     0.00200
C1211       C  0.14434547  0.94949048  0.21363034    -0.08400
C1212       C  0.17347158  0.96514228  0.19389296    -0.05700
C1213       C  0.19926778  0.97100920  0.21715318     0.00200
C1214       C  0.19594080  0.96038801  0.26137015    -0.08300
C1215       C  0.22292725  0.96592857  0.28767842     0.62100
H1216       H  0.16421957  0.93757664  0.31559307     0.12800
H1217       H  0.17638131  0.97273906  0.15973928     0.12800
C1218       C  0.11714438  0.94261926  0.18592090     0.62300
F1219       F  0.24110805  0.99639228  0.29297675    -0.22800
F1220       F  0.23860973  0.95453738  0.26533890    -0.20200
F1221       F  0.21491107  0.95266175  0.32939078    -0.19800
F1222       F  0.10544367  0.96050709  0.19827799    -0.19900
F1223       F  0.09501537  0.91270814  0.19100370    -0.20200
F1224       F  0.12495704  0.94816453  0.14146757    -0.22900
C1225       C  0.21027315  0.52619164  0.08953242    -0.05700
C1226       C  0.23486237  0.54251117  0.11736348     0.00200
C1227       C  0.24767313  0.57408229  0.12021395    -0.08400
C1228       C  0.23401285  0.58780971  0.09694152    -0.05700
C1229       C  0.20964721  0.57128005  0.06860998     0.00200
C1230       C  0.19899816  0.54024679  0.06266178    -0.08300
C1231       C  0.17725146  0.52101978  0.35867977     0.62100
H1232       H  0.20101854  0.50216937  0.08649815     0.12800
H1233       H  0.24237298  0.61161057  0.10048871     0.12800
C1234       C  0.27627019  0.59332336  0.14577455     0.62300
F1235       F  0.18752392  0.50360627  0.33874638    -0.22800
F1236       F  0.17505375  0.53830115  0.32552193    -0.20200
F1237       F  0.14888437  0.50221126  0.37714570    -0.19800
F1238       F  0.29882318  0.58807697  0.13094584    -0.19900
F1239       F  0.27092414  0.58657490  0.19045557    -0.20200
F1240       F  0.28660985  0.62366989  0.14021310    -0.22900
C1241       C  0.20588864  0.67330626  0.30738937    -0.05700
C1242       C  0.21106933  0.64955124  0.29936444     0.00200
C1243       C  0.22741765  0.65041003  0.26035321    -0.08400
C1244       C  0.23754429  0.67509758  0.23071720    -0.05700
C1245       C  0.23076622  0.69798232  0.23793007     0.00200
C1246       C  0.21459477  0.69703678  0.27718680    -0.08300
C1247       C  0.20433238  0.71917390  0.28888963     0.62100
H1248       H  0.19335002  0.67258364  0.33679156     0.12800
H1249       H  0.24920932  0.67576667  0.20011347     0.12800
C1250       C  0.23258046  0.62471734  0.24844884     0.62300
F1251       F  0.21524065  0.73126203  0.32997355    -0.22800
F1252       F  0.17310320  0.70418965  0.29062544    -0.20200
F1253       F  0.21395816  0.74256094  0.25924236    -0.19800
F1254       F  0.20553372  0.59768432  0.25062285    -0.19900
F1255       F  0.25267943  0.62380244  0.27738655    -0.20200
F1256       F  0.24450800  0.62798806  0.20595792    -0.22900
C1257       C  0.15458609  0.69633237  0.05063958    -0.05700
C1258       C  0.14338716  0.71602128  0.04575904     0.00200
C1259       C  0.15575403  0.74202449  0.07223112    -0.08400
C1260       C  0.18016612  0.74809227  0.09980047    -0.05700
C1261       C  0.18970083  0.72700531  0.10785378     0.00200
C1262       C  0.17470792  0.69939006  0.08394920    -0.08300
C1263       C  0.17666807  0.67147262  0.09491357     0.62100
H1264       H  0.14532935  0.67672306  0.02984658     0.12800
H1265       H  0.19162415  0.76989772  0.11455272     0.12800
C1266       C  0.14318522  0.76315056  0.07302675     0.62300
F1267       F  0.16213419  0.64893749  0.06437384    -0.22800
F1268       F  0.16221148  0.65922181  0.13491325    -0.20200
F1269       F  0.20618248  0.67807714  0.09609732    -0.19800
F1270       F  0.11191174  0.74701745  0.07483263    -0.19900
F1271       F  0.15298826  0.78143009  0.03574344    -0.20200
F1272       F  0.15270620  0.78144010  0.10980381    -0.22900
C1273       C  0.07707840  0.75145447  0.27964804    -0.05700
C1274       C  0.07922381  0.72722999  0.26317265     0.00200
C1275       C  0.07256417  0.71934810  0.21819058    -0.08400
C1276       C  0.05828261  0.73186077  0.19421561    -0.05700
C1277       C  0.05128847  0.75267326  0.21319352     0.00200
C1278       C  0.06546622  0.76591860  0.25388627    -0.08300
C1279       C  0.07252751  0.79676194  0.26861282     0.62100
H1280       H  0.08462962  0.75924701  0.31289708     0.12800
H1281       H  0.05179487  0.72454421  0.16054377     0.12800
C1282       C  0.07907413  0.69712960  0.19483821     0.62300
F1283       F  0.10159065  0.81245100  0.28470161    -0.22800
F1284       F  0.05266909  0.79429941  0.30207561    -0.20200
F1285       F  0.07151754  0.81334688  0.23357262    -0.19800
F1286       F  0.05252780  0.66986765  0.19142628    -0.19900
F1287       F  0.10008381  0.69286208  0.21684263    -0.20200
F1288       F  0.09064900  0.70766555  0.15266286    -0.22900
C1289       C  0.43212030  0.69662709  0.11558775    -0.05700
C1290       C  0.46361033  0.71033745  0.10928764     0.00200
C1291       C  0.47511434  0.69825733  0.07709146    -0.08400
C1292       C  0.45492119  0.67180914  0.05555946    -0.05700
C1293       C  0.42372311  0.65636752  0.06462965     0.00200
C1294       C  0.41176334  0.66971885  0.09362363    -0.08300
C1295       C  0.37801532  0.65565495  0.10215670     0.62100
H1296       H  0.42368076  0.70640425  0.13947070     0.12800
H1297       H  0.46396397  0.66221720  0.03221719     0.12800
C1298       C  0.00822354  0.71139609  0.06619032     0.62300
F1299       F  0.37170785  0.66986416  0.13601364    -0.22800
F1300       F  0.36538180  0.62576079  0.11384897    -0.20200
F1301       F  0.36449160  0.65794881  0.06435545    -0.19800
F1302       F  0.01821023  0.69284884  0.08220726    -0.19900
F1303       F  0.02666169  0.73996318  0.08172531    -0.20200
F1304       F  0.01149608  0.71302490  0.02047982    -0.22900
C1305       C  0.35829933  0.57492993  0.24955370    -0.05700
C1306       C  0.34826311  0.57753335  0.29184306     0.00200
C1307       C  0.31727970  0.56783635  0.29878103    -0.08400
C1308       C  0.29706223  0.55360178  0.26366093    -0.05700
C1309       C  0.30663634  0.54779752  0.22263904     0.00200
C1310       C  0.33844708  0.56157501  0.21430866    -0.08300
C1311       C  0.35307484  0.56403576  0.16906916     0.62100
H1312       H  0.38224927  0.58334078  0.24412061     0.12800
H1313       H  0.27342118  0.54589212  0.26897763     0.12800
C1314       C  0.30526878  0.57203695  0.01110823     0.62300
F1315       F  0.37869872  0.59210310  0.16390857    -0.22800
F1316       F  0.33411770  0.56070942  0.13484229    -0.20200
F1317       F  0.36181648  0.54275771  0.16575202    -0.19800
F1318       F  0.31720359  0.60217470  0.01995245    -0.19900
F1319       F  0.31357342  0.55914163  0.04401966    -0.20200
F1320       F  0.27405960  0.55842986  0.01230014    -0.22900
C1321       C  0.37026793  0.58703028  0.66128771     0.03200
C1322       C  0.38282656  0.61529766  0.34854149    -0.13000
C1323       C  0.40669492  0.62476161  0.37868526     0.00700
C1324       C  0.41861399  0.60578589  0.38671735    -0.11500
C1325       C  0.40804616  0.57889444  0.69722946     0.03200
C1326       C  0.38297559  0.56899696  0.66994312    -0.10900
H1327       H  0.37545312  0.63057581  0.33821151     0.08800
H1328       H  0.43794701  0.61345054  0.40792588     0.06300
H1329       H  0.37508231  0.54842918  0.65161482     0.06100
C1330       C  0.08394105  0.70830050  0.62972427     0.03200
C1331       C  0.10991521  0.72124146  0.65635249    -0.13000
C1332       C  0.11464781  0.70368030  0.35336185     0.00700
C1333       C  0.09221206  0.67334570  0.35768946    -0.11500
C1334       C  0.06725303  0.65996352  0.66442784     0.03200
C1335       C  0.06270599  0.67748166  0.63398986    -0.10900
H1336       H  0.12715870  0.74448962  0.65104203     0.08800
H1337       H  0.09423891  0.65917972  0.38236191     0.06300
H1338       H  0.04343002  0.66699948  0.61245668     0.06100
C1339       C  0.19388335  0.58556967  0.38054410     0.03200
C1340       C  0.21019039  0.61162675  0.35404788    -0.13000
C1341       C  0.19448824  0.62267779  0.66368210     0.00700
C1342       C  0.16264460  0.60779642  0.66641255    -0.11500
C1343       C  0.14656161  0.58274573  0.36057154     0.03200
C1344       C  0.16227185  0.57203294  0.38487207    -0.10900
H1345       H  0.23459624  0.62281062  0.35219475     0.08800
H1346       H  0.15080198  0.61560311  0.64584901     0.06300
H1347       H  0.14977314  0.55214608  0.40559943     0.06100
C1348       C  0.11161185  0.92585031  0.61438112     0.03200
C1349       C  0.09575446  0.94131353  0.61743296    -0.13000
C1350       C  0.06744001  0.92806229  0.63836476     0.00700
C1351       C  0.05668459  0.89988494  0.33016900    -0.11500
C1352       C  0.07320209  0.88498992  0.33032822     0.03200
C1353       C  0.10043231  0.89830099  0.63770368    -0.10900
H1354       H  0.10543676  0.96374396  0.60360022     0.08800
H1355       H  0.03546113  0.89043465  0.34869876     0.06300
H1356       H  0.11311556  0.88672606  0.63705479     0.06100
C1357       C  0.41618055  0.80571235  0.63684640     0.03200
C1358       C  0.42420395  0.83608876  0.63311703    -0.13000
C1359       C  0.41244056  0.84897455  0.66194222     0.00700
C1360       C  0.39006719  0.83110803  0.36288255    -0.11500
C1361       C  0.38101361  0.80062487  0.36881002     0.03200
C1362       C  0.39455216  0.78794514  0.67030994    -0.11100
H1363       H  0.44031048  0.85034092  0.60770346     0.08800
H1364       H  0.37968803  0.84108785  0.38268038     0.06300
H1365       H  0.38899073  0.76506536  0.67613666     0.06100
C1366       C  0.29162663  0.87819710  0.63248189     0.03200
C1367       C  0.27636694  0.88905464  0.65962603    -0.13000
C1368       C  0.29385587  0.91859170  0.34402952     0.00700
C1369       C  0.32489263  0.93563538  0.33629263    -0.11500
C1370       C  0.33823380  0.92614349  0.63946461     0.03200
C1371       C  0.32250461  0.89730367  0.62207751    -0.10900
H1372       H  0.25257332  0.87493861  0.66768647     0.08800
H1373       H  0.33779149  0.95691437  0.35289565     0.06300
H1374       H  0.33431782  0.88960198  0.60059654     0.06100
O1375       O  0.45628205  0.95811322  0.62283309    -0.88300
C1376       C  0.44066360  0.49774425  0.39807177     0.87700
Mg1377     Mg  0.48877636  0.94424234  0.62605324     1.58100
O1378       O  0.47701491  0.54564861  0.63877683    -0.88000
O1379       O  0.44274888  0.98521539  0.58423784    -0.75400
C1380       C  0.11306622  0.56515603  0.35867200     0.92800
O1381       O  0.46047758  0.94743491  0.39778820    -0.75200
O1382       O  0.09956277  0.53679684  0.36451626    -0.82700
Mg1383     Mg  0.42569477  0.94314518  0.34683425     1.58000
C1384       C  0.05054423  0.62727931  0.66314547     0.92700
O1385       O  0.38749353  0.93444689  0.62961084    -0.80900
H1386       H  0.47877098  0.55520858  0.57426445    -0.06300
C1387       C  0.03140188  0.54807183  0.40640942     0.87700
O1388       O  0.02391335  0.98567348  0.58684069    -0.75400
O1389       O  0.43853383  0.98943722  0.35694177    -0.88200
O1390       O  0.02248368  0.61295782  0.67310680    -0.81000
C1391       C  0.42713875  0.56438490  0.36044419     0.92800
C1392       C  0.37079631  0.94586838  0.63294134     0.92700
Mg1393     Mg  0.05432518  0.56703660  0.64581322     1.58000
O1394       O  0.09889700  0.57852764  0.34764843    -0.80900
O1395       O  0.01697592  0.56131921  0.59939215    -0.75200
O1396       O  0.41537486  0.53790493  0.34487517    -0.81000
O1397       O  0.41090120  0.89395842  0.33884905    -0.82700
O1398       O  0.06365139  0.97102094  0.65257389    -0.81100
C1399       C  0.49074844  0.55445290  0.60291403     0.87100
O1400       O  0.04296671  0.52140771  0.63830412    -0.88200
O1401       O  0.02556263  0.55445394  0.36985948    -0.88300
O1402       O  0.03918679  0.52844858  0.41073171    -0.75400
Mg1403     Mg  0.43108567  0.51085945  0.63622992     1.58000
O1404       O  0.45522527  0.57979982  0.36869485    -0.82700
H1405       H  0.45552866  0.95734626  0.55658846    -0.06500
O1406       O  0.00385978  0.96656994  0.36120658    -0.88000
H1407       H  0.00197174  0.95606919  0.42545833    -0.06300
H1408       H  0.05806327  0.52852000  0.57542702    -0.06500
C1409       C  0.48843324  0.95591589  0.39469970     0.87100
C1410       C  0.45162823  0.96626943  0.58674977     0.87700
C1411       C  0.04269167  0.51280507  0.60020095     0.87700
H1412       H  0.02895614  0.55883289  0.43561175    -0.06400
O1413       O  0.45921041  0.52470111  0.40837695    -0.75500
Mg1414     Mg  0.05004681  0.50030516  0.36317197     1.58000
H1415       H  0.42528417  0.98115085  0.42062680    -0.06500
C1416       C  0.42704022  0.88211405  0.33200912     0.92700
O1417       O  0.02244349  0.92899210  0.63186735    -0.82700
C1418       C  0.05036816  0.94372559  0.64033705     0.92800
O1419       O  0.38185517  0.97405834  0.63551100    -0.82700
Mg1420     Mg  0.99092055  0.56662387  0.36952260     1.58200
O1421       O  0.45516270  0.89792158  0.32301506    -0.81000
O1422       O  0.06573764  0.61445990  0.65533156    -0.82700
C1423       C  0.02676967  0.75685332  0.52193071     0.86500
C1424       C  0.50334084  0.72949226  0.49671211    -0.53700
C1425       C  0.48437360  0.73408027  0.47132419     0.09500
C1426       C  0.48950744  0.76636009  0.47507432     0.20400
C1427       C  0.04158497  0.78099873  0.48526037    -0.54400
C1428       C  0.02216368  0.78620209  0.46079075     0.09600
C1429       C  0.50822351  0.76649981  0.54895907    -0.54000
C1430       C  0.48874687  0.77175955  0.52555599     0.10100
H1431       H  0.50172831  0.70769231  0.49811255     0.14700
H1432       H  0.47287484  0.76975742  0.45738021     0.00400
H1433       H  0.06580638  0.79252526  0.47888051     0.15000
H1434       H  0.50860008  0.76742563  0.58466069     0.14800
C1435       C  0.26311950  0.98697783  0.46699358     0.86500
C1436       C  0.28807772  0.50664666  0.49856138    -0.53700
C1437       C  0.28276406  0.52534046  0.52473450     0.09500
C1438       C  0.25019599  0.51997278  0.51923628     0.20400
C1439       C  0.23491621  0.96907979  0.49674177    -0.54400
C1440       C  0.22870306  0.98612486  0.52461101     0.09600
C1441       C  0.25483968  0.50794981  0.44301917    -0.54000
C1442       C  0.24833760  0.52539984  0.46944846     0.10100
H1443       H  0.30861335  0.50563298  0.49971037     0.14700
H1444       H  0.24398343  0.53340166  0.54084097     0.00400
H1445       H  0.21987050  0.94501907  0.49420684     0.15000
H1446       H  0.25198558  0.50767458  0.40744734     0.14800
C1447       C  0.21628099  0.73379720  0.47213201     0.86500
C1448       C  0.21044939  0.71098411  0.50878385    -0.53700
C1449       C  0.23483590  0.71746993  0.53353866     0.09500
C1450       C  0.26359779  0.74752472  0.52022428     0.20400
C1451       C  0.22804014  0.76280119  0.49911595    -0.54400
C1452       C  0.25340866  0.77135715  0.52417455     0.09600
C1453       C  0.24414594  0.73831092  0.44553731    -0.54000
C1454       C  0.26891890  0.74519555  0.47006668     0.10100
H1455       H  0.18818600  0.69318411  0.51869770     0.14700
H1456       H  0.28322409  0.75125031  0.53896836     0.00400
H1457       H  0.21362812  0.77201399  0.50537660     0.15000
H1458       H  0.24452587  0.73759700  0.40964113     0.14800
C1459       C  0.26884581  0.92135834  0.41283925    -0.05700
C1460       C  0.28021613  0.93312855  0.37058356     0.00200
C1461       C  0.28693353  0.96277190  0.36018531    -0.08400
C1462       C  0.28293425  0.97966126  0.39307050    -0.05700
C1463       C  0.27087634  0.96795107  0.43566624     0.00200
C1464       C  0.26632807  0.93896074  0.44650829    -0.08300
C1465       C  0.26255301  0.92651661  0.49311296     0.62100
H1466       H  0.26542269  0.89936925  0.42116857     0.12800
H1467       H  0.29039153  0.00281630  0.38528977     0.12800
C1468       C  0.30006665  0.97905146  0.65029750     0.62300
F1469       F  0.28141422  0.91477680  0.49783234    -0.22800
F1470       F  0.23292517  0.90386435  0.50004171    -0.20200
F1471       F  0.27037853  0.94793142  0.52535577    -0.19800
F1472       F  0.29225565  0.95894993  0.61589007    -0.19900
F1473       F  0.33114644  0.99569419  0.65286078    -0.20200
F1474       F  0.29012299  0.99864110  0.64028333    -0.22900
C1475       C  0.28882027  0.82935872  0.62061114    -0.05700
C1476       C  0.27666448  0.84781702  0.61219433     0.00200
C1477       C  0.25702874  0.84083376  0.57662176    -0.08400
C1478       C  0.25397922  0.81862192  0.54686654    -0.05700
C1479       C  0.26452949  0.79837207  0.55547050     0.00200
C1480       C  0.28251081  0.80416470  0.59435438    -0.08300
C1481       C  0.29678486  0.78593853  0.60866375     0.62100
H1482       H  0.30440641  0.83576510  0.64769433     0.12800
H1483       H  0.24287752  0.81732349  0.51629793     0.12800
C1484       C  0.23839721  0.85592937  0.57094303     0.62300
F1485       F  0.31086817  0.79505872  0.64906749    -0.22800
F1486       F  0.31877921  0.78966711  0.57804326    -0.20200
F1487       F  0.27498922  0.75607270  0.61379017    -0.19800
F1488       F  0.25671939  0.88673976  0.57028321    -0.19900
F1489       F  0.21797584  0.84771289  0.60605342    -0.20200
F1490       F  0.22212268  0.84741041  0.53227104    -0.22900
C1491       C  0.32475064  0.78015179  0.46511271    -0.05700
C1492       C  0.29935829  0.75439938  0.44909508     0.00200
C1493       C  0.30356394  0.74011543  0.41151818    -0.08400
C1494       C  0.33095015  0.75521002  0.38677698    -0.05700
C1495       C  0.35564188  0.78221321  0.40121380     0.00200
C1496       C  0.35323261  0.79307132  0.44353945    -0.08300
C1497       C  0.37982209  0.81783559  0.46780754     0.62100
H1498       H  0.32240449  0.79080554  0.49451715     0.12800
H1499       H  0.33283263  0.74594766  0.35548397     0.12800
C1500       C  0.28044343  0.70876401  0.39723346     0.62300
F1501       F  0.38004956  0.80812083  0.51049689    -0.22800
F1502       F  0.37680627  0.84297518  0.47003584    -0.20200
F1503       F  0.40735968  0.82561950  0.44794704    -0.19800
F1504       F  0.26465570  0.71036975  0.36170945    -0.19900
F1505       F  0.26067076  0.69255940  0.43154238    -0.20200
F1506       F  0.29481709  0.69327363  0.38442176    -0.22900
C1507       C  0.43818050  0.76041440  0.55681793    -0.05700
C1508       C  0.46892966  0.78135583  0.54871300     0.00200
C1509       C  0.48125143  0.81020181  0.56738593    -0.08400
C1510       C  0.46394565  0.81557580  0.59857255    -0.05700
C1511       C  0.43301250  0.79497233  0.60727724     0.00200
C1512       C  0.41953331  0.76721556  0.58399595    -0.08300
C1513       C  0.38588347  0.74464822  0.58661330     0.62100
H1514       H  0.42880063  0.73848532  0.54188823     0.12800
H1515       H  0.47482048  0.83659462  0.61618040     0.12800
C1516       C  0.01077063  0.83522376  0.55249769     0.62300
F1517       F  0.37684257  0.72615815  0.55004745    -0.22800
F1518       F  0.36928248  0.75903364  0.58758785    -0.20200
F1519       F  0.37929424  0.72679100  0.62405566    -0.19800
F1520       F  0.01640913  0.86248134  0.56941161    -0.19900
F1521       F  0.01168572  0.83747668  0.50677650    -0.20200
F1522       F  0.03336388  0.83037497  0.56607602    -0.22900
C1523       C  0.03385058  0.83339419  0.35349752    -0.05700
C1524       C  0.06249159  0.85832808  0.36039781     0.00200
C1525       C  0.07758195  0.85956740  0.39978723    -0.08400
C1526       C  0.06274469  0.83636708  0.43170369    -0.05700
C1527       C  0.03415992  0.81055478  0.42478062     0.00200
C1528       C  0.01979711  0.80894016  0.38369520    -0.08300
C1529       C  0.49132030  0.78362949  0.36891809     0.62100
H1530       H  0.02226975  0.83337552  0.32386463     0.12800
H1531       H  0.07375235  0.83847709  0.46279716     0.12800
C1532       C  0.10918988  0.88548567  0.40840430     0.62300
F1533       F  0.48793217  0.78342861  0.32358594    -0.22800
F1534       F  0.46750018  0.78490317  0.38866596    -0.20200
F1535       F  0.49006386  0.75720135  0.37945553    -0.19800
F1536       F  0.11019887  0.91254217  0.40258580    -0.19900
F1537       F  0.12953227  0.88417085  0.37920050    -0.20200
F1538       F  0.11828992  0.88455389  0.45100099    -0.22900
C1539       C  0.16672752  0.94565394  0.61318709    -0.05700
C1540       C  0.14108968  0.94017631  0.58989888     0.00200
C1541       C  0.14440932  0.94997613  0.54501908    -0.08400
C1542       C  0.17365427  0.96618238  0.52589009    -0.05700
C1543       C  0.19934133  0.97225709  0.54956744     0.00200
C1544       C  0.19581151  0.96135905  0.59364332    -0.08300
C1545       C  0.22268923  0.96697310  0.62032529     0.62100
H1546       H  0.16383321  0.93819954  0.64741547     0.12800
H1547       H  0.17670507  0.97394066  0.49179713     0.12800
C1548       C  0.11746200  0.94272003  0.51649886     0.62300
F1549       F  0.24018428  0.99735898  0.62719993    -0.22800
F1550       F  0.23921115  0.95671289  0.59754000    -0.20200
F1551       F  0.21440451  0.95267970  0.66131660    -0.19800
F1552       F  0.10706827  0.96221224  0.52543818    -0.19900
F1553       F  0.09439485  0.91344610  0.52406139    -0.20200
F1554       F  0.12531188  0.94573501  0.47201606    -0.22900
C1555       C  0.21012266  0.52579212  0.42166930    -0.05700
C1556       C  0.23448693  0.54209619  0.44992774     0.00200
C1557       C  0.24716559  0.57363550  0.45293449    -0.08400
C1558       C  0.23343285  0.58729688  0.42973196    -0.05700
C1559       C  0.20917239  0.57075548  0.40126290     0.00200
C1560       C  0.19882664  0.53984323  0.39484009    -0.08300
C1561       C  0.17730213  0.52190624  0.69345543     0.62100
H1562       H  0.20106136  0.50182126  0.41826109     0.12800
H1563       H  0.24159444  0.61104180  0.43355381     0.12800
C1564       C  0.27567295  0.59292598  0.47864732     0.62300
F1565       F  0.18523612  0.50181481  0.67667402    -0.22800
F1566       F  0.17848358  0.53974565  0.65831387    -0.20200
F1567       F  0.14804555  0.50583175  0.71025311    -0.19800
F1568       F  0.29826272  0.58759687  0.46428240    -0.19900
F1569       F  0.27013285  0.58633614  0.52334518    -0.20200
F1570       F  0.28608115  0.62326094  0.47274445    -0.22900
C1571       C  0.20503040  0.67304059  0.64102902    -0.05700
C1572       C  0.21102442  0.64971609  0.63408693     0.00200
C1573       C  0.22869427  0.65119082  0.59631160    -0.08400
C1574       C  0.23894842  0.67584252  0.56652853    -0.05700
C1575       C  0.23114057  0.69811195  0.57244363     0.00200
C1576       C  0.21402782  0.69677943  0.61078429    -0.08300
C1577       C  0.20301344  0.71847037  0.62150388     0.62100
H1578       H  0.19159822  0.67193546  0.66932055     0.12800
H1579       H  0.25143761  0.67686095  0.53667155     0.12800
C1580       C  0.23505476  0.62611320  0.58558021     0.62300
F1581       F  0.21355889  0.73101548  0.66247245    -0.22800
F1582       F  0.17175219  0.70291799  0.62298386    -0.20200
F1583       F  0.21233755  0.74155567  0.59139083    -0.19800
F1584       F  0.20841136  0.59868721  0.58657369    -0.19900
F1585       F  0.25467701  0.62570930  0.61596796    -0.20200
F1586       F  0.24822346  0.62986217  0.54388425    -0.22900
C1587       C  0.15319675  0.69441692  0.38563614    -0.05700
C1588       C  0.14232841  0.71437217  0.38066600     0.00200
C1589       C  0.15529769  0.74072367  0.40632424    -0.08400
C1590       C  0.17993173  0.74681479  0.43320926    -0.05700
C1591       C  0.18892707  0.72540091  0.44188160     0.00200
C1592       C  0.17356332  0.69758542  0.41858094    -0.08300
C1593       C  0.17541097  0.66965568  0.42981628     0.62100
H1594       H  0.14353453  0.67460143  0.36524753     0.12800
H1595       H  0.19206538  0.76896002  0.44682697     0.12800
C1596       C  0.14321858  0.76225695  0.40705739     0.62300
F1597       F  0.16082319  0.64706444  0.39938744    -0.22800
F1598       F  0.16093554  0.65759088  0.46988256    -0.20200
F1599       F  0.20489381  0.67615332  0.43105843    -0.19800
F1600       F  0.11194412  0.74657067  0.40899499    -0.19900
F1601       F  0.15323583  0.78048662  0.36972331    -0.20200
F1602       F  0.15304711  0.78057174  0.44379600    -0.22900
C1603       C  0.07481591  0.75001756  0.61410937    -0.05700
C1604       C  0.07802533  0.72642710  0.59768001     0.00200
C1605       C  0.07171291  0.71848478  0.55260450    -0.08400
C1606       C  0.05742116  0.73079303  0.52813402    -0.05700
C1607       C  0.04972149  0.75119786  0.54673926     0.00200
C1608       C  0.06297802  0.76413927  0.58809464    -0.08300
C1609       C  0.06896292  0.79448747  0.60350464     0.62100
H1610       H  0.08172519  0.75759980  0.64764044     0.12800
H1611       H  0.05154278  0.72365048  0.49423999     0.12800
C1612       C  0.07895351  0.69682243  0.52902239     0.62300
F1613       F  0.09744451  0.81035714  0.62150723    -0.22800
F1614       F  0.04796876  0.79102198  0.63574937    -0.20200
F1615       F  0.06866076  0.81144087  0.56848319    -0.19800
F1616       F  0.05230229  0.67073369  0.51972264    -0.19900
F1617       F  0.09699952  0.68959508  0.55348009    -0.20200
F1618       F  0.09427511  0.70974090  0.48960571    -0.22900
C1619       C  0.43261563  0.69697607  0.44555799    -0.05700
C1620       C  0.46409907  0.71031102  0.43989202     0.00200
C1621       C  0.47565239  0.69797043  0.40825278    -0.08400
C1622       C  0.45544272  0.67148880  0.38679669    -0.05700
C1623       C  0.42418464  0.65631886  0.39546771     0.00200
C1624       C  0.41223688  0.67003189  0.42375067    -0.08300
C1625       C  0.37848425  0.65618379  0.43200092     0.62100
H1626       H  0.42418661  0.70701631  0.46898868     0.12800
H1627       H  0.46449409  0.66162979  0.36396087     0.12800
C1628       C  0.00843778  0.70963220  0.39757758     0.62300
F1629       F  0.37215982  0.67124295  0.46449501    -0.22800
F1630       F  0.36586989  0.62659103  0.44543960    -0.20200
F1631       F  0.36495711  0.65752818  0.39359555    -0.19800
F1632       F  0.01767589  0.69048551  0.41362199    -0.19900
F1633       F  0.02716048  0.73795482  0.41377415    -0.20200
F1634       F  0.01221557  0.71158798  0.35193121    -0.22900
C1635       C  0.35798199  0.57471325  0.58258193    -0.05700
C1636       C  0.34802473  0.57756069  0.62480694     0.00200
C1637       C  0.31710798  0.56824234  0.63159640    -0.08400
C1638       C  0.29682671  0.55392072  0.59654820    -0.05700
C1639       C  0.30630128  0.54785781  0.55564239     0.00200
C1640       C  0.33810259  0.56147652  0.54732062    -0.08300
C1641       C  0.35270948  0.56398637  0.50204128     0.62100
H1642       H  0.38189852  0.58294623  0.57715149     0.12800
H1643       H  0.27321590  0.54638054  0.60181501     0.12800
C1644       C  0.30550841  0.57132434  0.34353454     0.62300
F1645       F  0.37818541  0.59215414  0.49679539    -0.22800
F1646       F  0.33367318  0.56047406  0.46783721    -0.20200
F1647       F  0.36166083  0.54286399  0.49874190    -0.19800
F1648       F  0.31728810  0.60146308  0.35217014    -0.19900
F1649       F  0.31407869  0.55868349  0.37647382    -0.20200
F1650       F  0.27428217  0.55749443  0.34498736    -0.22900
C1651       C  0.37037684  0.58761766  0.99602766     0.03200
C1652       C  0.38266563  0.61544687  0.68138362    -0.13000
C1653       C  0.40652304  0.62494959  0.71155322     0.00700
C1654       C  0.41843665  0.60599170  0.71974192    -0.11500
C1655       C  0.40838734  0.57934910  0.03097597     0.03200
C1656       C  0.38340767  0.56973763  0.00359263    -0.10900
H1657       H  0.37530819  0.63073220  0.67101824     0.08800
H1658       H  0.43778240  0.61371556  0.74093967     0.06300
H1659       H  0.37581889  0.54955773  0.98439900     0.06100
C1660       C  0.08601557  0.70985649  0.95887505     0.03200
C1661       C  0.11196393  0.72277023  0.98558417    -0.13000
C1662       C  0.11354573  0.70365638  0.68892927     0.00700
C1663       C  0.09108276  0.67336245  0.69352916    -0.11500
C1664       C  0.06977893  0.66126120  0.99264837     0.03200
C1665       C  0.06498028  0.67891882  0.96273500    -0.10900
H1666       H  0.12914129  0.74592913  0.97995224     0.08800
H1667       H  0.09307225  0.65929649  0.71842441     0.06300
H1668       H  0.04560439  0.66847852  0.94139914     0.06100
C1669       C  0.19320622  0.58578462  0.71576661     0.03200
C1670       C  0.20966375  0.61190669  0.68946926    -0.13000
C1671       C  0.19616314  0.62341379  0.99537182     0.00700
C1672       C  0.16438671  0.60883273  0.99829122    -0.11500
C1673       C  0.14595857  0.58254891  0.69428036     0.03200
C1674       C  0.16154556  0.57200334  0.71921554    -0.10900
H1675       H  0.23408181  0.62335441  0.68854560     0.08800
H1676       H  0.15265251  0.61680612  0.97780753     0.06300
H1677       H  0.14894039  0.55228580  0.74020014     0.06100
C1678       C  0.11151845  0.92528065  0.95116879     0.03200
C1679       C  0.09625321  0.94127938  0.95516688    -0.13000
C1680       C  0.06788693  0.92820320  0.97587142     0.00700
C1681       C  0.05612274  0.90051406  0.66064100    -0.11500
C1682       C  0.07312613  0.88618443  0.66257024     0.03200
C1683       C  0.09989535  0.89744268  0.97384156    -0.10900
H1684       H  0.10639463  0.96395117  0.94209359     0.08800
H1685       H  0.03484021  0.89114780  0.67900424     0.06300
H1686       H  0.11226580  0.88555380  0.97280212     0.06100
C1687       C  0.41730891  0.80562801  0.97592905     0.03200
C1688       C  0.42565788  0.83613342  0.97262037    -0.13000
C1689       C  0.41434070  0.84921089  0.00191843     0.00700
C1690       C  0.38926364  0.83062664  0.69175829    -0.11500
C1691       C  0.38047280  0.80016660  0.69731442     0.03200
C1692       C  0.39572544  0.78798222  0.00961765    -0.11100
H1693       H  0.44155431  0.85033177  0.94697047     0.08800
H1694       H  0.37880831  0.84037614  0.71189759     0.06300
H1695       H  0.38990417  0.76505286  0.01540152     0.06100
C1696       C  0.29302299  0.87734065  0.96676897     0.03200
C1697       C  0.27728580  0.88816407  0.99296745    -0.13000
C1698       C  0.29244065  0.91867576  0.67597602     0.00700
C1699       C  0.32348368  0.93565560  0.66818207    -0.11500
C1700       C  0.33937050  0.92532146  0.97479612     0.03200
C1701       C  0.32404418  0.89644548  0.95752425    -0.10900
H1702       H  0.25333794  0.87406342  0.99999834     0.08800
H1703       H  0.33650766  0.95667928  0.68536325     0.06300
H1704       H  0.33622971  0.88881704  0.93670736     0.06100
O1705       O  0.45740703  0.95787569  0.96061212    -0.88300
C1706       C  0.44019593  0.49722838  0.72981682     0.87700
Mg1707     Mg  0.49004379  0.94430263  0.96403087     1.58100
O1708       O  0.47724401  0.54613396  0.97119069    -0.88000
O1709       O  0.44378966  0.98452207  0.92104835    -0.75400
C1710       C  0.11243840  0.56496447  0.69216623     0.92800
O1711       O  0.45927171  0.94651918  0.72810685    -0.75200
O1712       O  0.09885938  0.53653782  0.69747647    -0.82700
Mg1713     Mg  0.42441813  0.94271509  0.67763993     1.58000
C1714       C  0.05276814  0.62847501  0.99172739     0.92700
O1715       O  0.38870625  0.93372427  0.96738155    -0.80900
H1716       H  0.47869553  0.55543020  0.90662555    -0.06300
C1717       C  0.03049312  0.54761565  0.73982684     0.87700
O1718       O  0.02428051  0.98570740  0.92361371    -0.75400
O1719       O  0.43746107  0.98896166  0.68890020    -0.88200
O1720       O  0.02472706  0.61435435  0.00206644    -0.81000
C1721       C  0.42685901  0.56442832  0.69395423     0.92800
C1722       C  0.37193082  0.94511176  0.96919886     0.92700
Mg1723     Mg  0.05600566  0.56763406  0.97610710     1.58000
O1724       O  0.09831154  0.57847377  0.68163488    -0.80900
O1725       O  0.01806184  0.56122982  0.93027424    -0.75200
O1726       O  0.41516635  0.53808841  0.67794296    -0.81000
O1727       O  0.40960801  0.89355989  0.66849998    -0.82700
O1728       O  0.06451662  0.97157622  0.98942972    -0.81100
C1729       C  0.49081235  0.55479894  0.93518339     0.87100
O1730       O  0.04444420  0.52178187  0.96988101    -0.88200
O1731       O  0.02457122  0.55403394  0.70337751    -0.88300
O1732       O  0.03839979  0.52807152  0.74386291    -0.75400
Mg1733     Mg  0.43135840  0.51118194  0.96936778     1.58000
O1734       O  0.45487805  0.57967526  0.70274443    -0.82700
H1735       H  0.45668982  0.95648719  0.89440367    -0.06500
O1736       O  0.00196600  0.96552520  0.68941099    -0.88000
H1737       H  0.99942598  0.95372496  0.75319768    -0.06300
H1738       H  0.05846041  0.52795588  0.90650945    -0.06500
C1739       C  0.48728309  0.95527615  0.72488490     0.87100
C1740       C  0.45271284  0.96564819  0.92424915     0.87700
C1741       C  0.04352689  0.51259725  0.93197641     0.87700
H1742       H  0.02807467  0.55829994  0.76914324    -0.06400
O1743       O  0.45867444  0.52400040  0.74102947    -0.75500
Mg1744     Mg  0.04911052  0.50018696  0.69553541     1.58000
H1745       H  0.42485817  0.98038062  0.75279522    -0.06500
C1746       C  0.42591237  0.88191766  0.66141535     0.92700
O1747       O  0.02309988  0.92942766  0.96969236    -0.82700
C1748       C  0.05105650  0.94412788  0.97782065     0.92800
O1749       O  0.38277827  0.97330718  0.97100173    -0.82700
Mg1750     Mg  0.99005577  0.56645961  0.70335032     1.58200
O1751       O  0.45403034  0.89793500  0.65257240    -0.81000
O1752       O  0.06774521  0.61538217  0.98419485    -0.82700
C1753       C  0.02795245  0.75871226  0.85384572     0.86500
C1754       C  0.50332087  0.72971489  0.83017316    -0.53700
C1755       C  0.48381894  0.73390062  0.80542229     0.09500
C1756       C  0.48838596  0.76595836  0.80966644     0.20400
C1757       C  0.04208379  0.78290857  0.81718919    -0.54400
C1758       C  0.02219103  0.78799298  0.79381773     0.09600
C1759       C  0.50847963  0.76674357  0.88278766    -0.54000
C1760       C  0.48830382  0.77148635  0.86036207     0.10100
H1761       H  0.50214066  0.70810778  0.83115108     0.14700
H1762       H  0.47133121  0.76904719  0.79265117     0.00400
H1763       H  0.06623187  0.79469604  0.81003491     0.15000
H1764       H  0.50978448  0.76816426  0.91847638     0.14800
C1765       C  0.26259783  0.98612266  0.80227469     0.86500
C1766       C  0.28928638  0.50841135  0.83202136    -0.53700
C1767       C  0.28346174  0.52655373  0.85868758     0.09500
C1768       C  0.25077855  0.52080877  0.85303153     0.20400
C1769       C  0.23478926  0.96799669  0.83276334    -0.54400
C1770       C  0.22842731  0.98491142  0.86072249     0.09600
C1771       C  0.25614878  0.50976458  0.77649156    -0.54000
C1772       C  0.24920736  0.52671772  0.80334795     0.10100
H1773       H  0.31006246  0.50783622  0.83302520     0.14700
H1774       H  0.24424542  0.53389178  0.87489037     0.00400
H1775       H  0.21994918  0.94389771  0.83045328     0.15000
H1776       H  0.25329182  0.50976929  0.74097064     0.14800
C1777       C  0.21744064  0.73463415  0.80373513     0.86500
C1778       C  0.21140023  0.71199022  0.84071892    -0.53700
C1779       C  0.23584507  0.71796284  0.86491871     0.09500
C1780       C  0.26484979  0.74764672  0.85119981     0.20400
C1781       C  0.22997898  0.76391694  0.83028911    -0.54400
C1782       C  0.25532868  0.77197419  0.85523385     0.09600
C1783       C  0.24492072  0.73846707  0.77680794    -0.54000
C1784       C  0.26973083  0.74500225  0.80101267     0.10100
H1785       H  0.18896450  0.69507008  0.85169428     0.14700
H1786       H  0.28449556  0.75111022  0.86967583     0.00400
H1787       H  0.21633067  0.77405389  0.83589844     0.15000
H1788       H  0.24510543  0.73778457  0.74090937     0.14800
C1789       C  0.26752258  0.92081433  0.74544112    -0.05700
C1790       C  0.27904563  0.93311199  0.70345678     0.00200
C1791       C  0.28635893  0.96311619  0.69435582    -0.08400
C1792       C  0.28285969  0.97979036  0.72813610    -0.05700
C1793       C  0.27051700  0.96748507  0.77034121     0.00200
C1794       C  0.26546962  0.93819315  0.77993888    -0.08300
C1795       C  0.26243612  0.92554332  0.82613467     0.62100
H1796       H  0.26377780  0.89859709  0.75295136     0.12800
H1797       H  0.29059474  0.00314801  0.72129327     0.12800
C1798       C  0.30068402  0.97801211  0.98218757     0.62300
F1799       F  0.28137439  0.91377468  0.82912933    -0.22800
F1800       F  0.23289457  0.90294167  0.83384566    -0.20200
F1801       F  0.27089498  0.94685657  0.85871039    -0.19800
F1802       F  0.29351772  0.95782139  0.94803997    -0.19900
F1803       F  0.33170481  0.99490296  0.98567167    -0.20200
F1804       F  0.29069765  0.99738974  0.97104048    -0.22900
C1805       C  0.28986398  0.82841213  0.95366088    -0.05700
C1806       C  0.27831665  0.84738692  0.94514489     0.00200
C1807       C  0.26007396  0.84168693  0.90813547    -0.08400
C1808       C  0.25734551  0.81985558  0.87786312    -0.05700
C1809       C  0.26690292  0.79889560  0.88677266     0.00200
C1810       C  0.28407168  0.80379551  0.92633978    -0.08300
C1811       C  0.29819825  0.78532915  0.94013387     0.62100
H1812       H  0.30462316  0.83400493  0.98165997     0.12800
H1813       H  0.24714920  0.81925423  0.84668122     0.12800
C1814       C  0.24257000  0.85782411  0.90136170     0.62300
F1815       F  0.31224738  0.79404410  0.98061525    -0.22800
F1816       F  0.32017647  0.78920414  0.90936968    -0.20200
F1817       F  0.27634891  0.75547010  0.94474139    -0.19800
F1818       F  0.26157078  0.88850378  0.90298845    -0.19900
F1819       F  0.22078048  0.84918145  0.93459989    -0.20200
F1820       F  0.22806282  0.85084176  0.86118647    -0.22900
C1821       C  0.32555375  0.77969867  0.79518780    -0.05700
C1822       C  0.29996739  0.75394544  0.77962320     0.00200
C1823       C  0.30375440  0.73943699  0.74200507    -0.08400
C1824       C  0.33082475  0.75446545  0.71651047    -0.05700
C1825       C  0.35561239  0.78162233  0.73032675     0.00200
C1826       C  0.35376017  0.79254340  0.77286258    -0.08300
C1827       C  0.38068877  0.81738241  0.79645117     0.62100
H1828       H  0.32356964  0.79042476  0.82478170     0.12800
H1829       H  0.33234811  0.74509398  0.68512206     0.12800
C1830       C  0.28045037  0.70792667  0.72861912     0.62300
F1831       F  0.38135492  0.80791990  0.83913853    -0.22800
F1832       F  0.37785610  0.84262691  0.79867883    -0.20200
F1833       F  0.40796059  0.82488631  0.77591125    -0.19800
F1834       F  0.26343511  0.70913894  0.69455405    -0.19900
F1835       F  0.26184646  0.69180807  0.76407664    -0.20200
F1836       F  0.29465636  0.69261362  0.71411235    -0.22900
C1837       C  0.43810662  0.76017391  0.89371343    -0.05700
C1838       C  0.46876465  0.78108038  0.88469169     0.00200
C1839       C  0.48135639  0.80988149  0.90366943    -0.08400
C1840       C  0.46448492  0.81526953  0.93567712    -0.05700
C1841       C  0.43368140  0.79469384  0.94544010     0.00200
C1842       C  0.41988433  0.76690645  0.92212641    -0.08300
C1843       C  0.38626150  0.74437027  0.92578847     0.62100
H1844       H  0.42850373  0.73828230  0.87860732     0.12800
H1845       H  0.47573435  0.83623226  0.95339124     0.12800
C1846       C  0.01215088  0.83625470  0.88957389     0.62300
F1847       F  0.37680191  0.72480436  0.89047394    -0.22800
F1848       F  0.36978893  0.75889098  0.92556303    -0.20200
F1849       F  0.37994983  0.72751201  0.96424275    -0.19800
F1850       F  0.01723857  0.86356722  0.90546550    -0.19900
F1851       F  0.01434064  0.83834115  0.84384507    -0.20200
F1852       F  0.03433878  0.83150261  0.90547817    -0.22900
C1853       C  0.03417619  0.83457429  0.68581793    -0.05700
C1854       C  0.06238934  0.85993492  0.69340745     0.00200
C1855       C  0.07672226  0.86198161  0.73388987    -0.08400
C1856       C  0.06186471  0.83873124  0.76571255    -0.05700
C1857       C  0.03373810  0.81250417  0.75814878     0.00200
C1858       C  0.01972254  0.81050135  0.71660285    -0.08300
C1859       C  0.48980384  0.78228744  0.70210536     0.62100
H1860       H  0.02315193  0.83411178  0.65531117     0.12800
H1861       H  0.07242304  0.84108759  0.79731149     0.12800
C1862       C  0.10740359  0.88894634  0.74385508     0.62300
F1863       F  0.48583939  0.78241629  0.65691612    -0.22800
F1864       F  0.46539381  0.78183899  0.72290246    -0.20200
F1865       F  0.49021252  0.75653855  0.71151851    -0.19800
F1866       F  0.10666231  0.91513580  0.73796842    -0.19900
F1867       F  0.12910890  0.88934978  0.71562829    -0.20200
F1868       F  0.11595609  0.88820279  0.78687153    -0.22900
C1869       C  0.16651207  0.94445582  0.94956666    -0.05700
C1870       C  0.14091879  0.93937171  0.92652471     0.00200
C1871       C  0.14421095  0.94929952  0.88171709    -0.08400
C1872       C  0.17341402  0.96514367  0.86236912    -0.05700
C1873       C  0.19908271  0.97088592  0.88580459     0.00200
C1874       C  0.19556262  0.95991216  0.92985334    -0.08300
C1875       C  0.22240469  0.96520871  0.95636004     0.62100
H1876       H  0.16361120  0.93689796  0.98374252     0.12800
H1877       H  0.17647258  0.97295727  0.82832226     0.12800
C1878       C  0.11721581  0.94238417  0.85349523     0.62300
F1879       F  0.24039379  0.99559722  0.96274366    -0.22800
F1880       F  0.23839919  0.95430259  0.93366572    -0.20200
F1881       F  0.21411037  0.95125983  0.99760141    -0.19800
F1882       F  0.10597659  0.96089007  0.86447768    -0.19900
F1883       F  0.09470328  0.91268356  0.85933377    -0.20200
F1884       F  0.12522395  0.94708203  0.80904139    -0.22900
C1885       C  0.21050659  0.52659125  0.75625652    -0.05700
C1886       C  0.23492850  0.54309822  0.78429721     0.00200
C1887       C  0.24723530  0.57456666  0.78753740    -0.08400
C1888       C  0.23286569  0.58789593  0.76519340    -0.05700
C1889       C  0.20850634  0.57114942  0.73697638     0.00200
C1890       C  0.19867264  0.54039956  0.73002017    -0.08300
C1891       C  0.17713362  0.52136971  0.02682067     0.62100
H1892       H  0.20178560  0.50269126  0.75272054     0.12800
H1893       H  0.24079315  0.61158596  0.76912296     0.12800
C1894       C  0.27622116  0.59415645  0.81205725     0.62300
F1895       F  0.18582135  0.50215759  0.00877714    -0.22800
F1896       F  0.17658373  0.53872256  0.99228354    -0.20200
F1897       F  0.14837316  0.50433281  0.04508223    -0.19800
F1898       F  0.29881446  0.58949036  0.79559794    -0.19900
F1899       F  0.27189389  0.58725394  0.85675188    -0.20200
F1900       F  0.28592274  0.62439963  0.80696938    -0.22900
C1901       C  0.20753969  0.67415581  0.97330068    -0.05700
C1902       C  0.21259738  0.65028913  0.96553771     0.00200
C1903       C  0.22872887  0.65086570  0.92645868    -0.08400
C1904       C  0.23889330  0.67543952  0.89659265    -0.05700
C1905       C  0.23216439  0.69838287  0.90350697     0.00200
C1906       C  0.21611273  0.69768064  0.94275420    -0.08300
C1907       C  0.20570878  0.71978187  0.95396823     0.62100
H1908       H  0.19510440  0.67362897  0.00267301     0.12800
H1909       H  0.25039139  0.67588032  0.86592984     0.12800
C1910       C  0.23345050  0.62489630  0.91464027     0.62300
F1911       F  0.21652969  0.73211923  0.99495858    -0.22800
F1912       F  0.17447119  0.70468317  0.95559518    -0.20200
F1913       F  0.21528830  0.74300950  0.92403413    -0.19800
F1914       F  0.20612865  0.59812760  0.91637087    -0.19900
F1915       F  0.25309792  0.62345744  0.94391157    -0.20200
F1916       F  0.24563578  0.62814779  0.87234316    -0.22900
C1917       C  0.15225076  0.69429246  0.72034672    -0.05700
C1918       C  0.14139086  0.71428702  0.71584725     0.00200
C1919       C  0.15533802  0.74114136  0.74031921    -0.08400
C1920       C  0.18077229  0.74759465  0.76558426    -0.05700
C1921       C  0.18978561  0.72616836  0.77407931     0.00200
C1922       C  0.17374627  0.69798647  0.75171182    -0.08300
C1923       C  0.17697556  0.67057306  0.76116127     0.62100
H1924       H  0.14212849  0.67430359  0.70033727     0.12800
H1925       H  0.19333401  0.76997098  0.77837302     0.12800
C1926       C  0.14412279  0.76335832  0.74111269     0.62300
F1927       F  0.16055360  0.64730282  0.73244993    -0.22800
F1928       F  0.16558549  0.65886338  0.80271833    -0.20200
F1929       F  0.20665471  0.67778250  0.75732881    -0.19800
F1930       F  0.11303110  0.74904269  0.73779357    -0.19900
F1931       F  0.15763079  0.78383906  0.70665267    -0.20200
F1932       F  0.15139809  0.77889304  0.78059591    -0.22900
C1933       C  0.07747063  0.75220396  0.94374030    -0.05700
C1934       C  0.07997710  0.72818359  0.92718310     0.00200
C1935       C  0.07307438  0.72017693  0.88222153    -0.08400
C1936       C  0.05858136  0.73253635  0.85838723    -0.05700
C1937       C  0.05138487  0.75318232  0.87740312     0.00200
C1938       C  0.06550374  0.76643349  0.91813518    -0.08300
C1939       C  0.07216147  0.79712205  0.93306941     0.62100
H1940       H  0.08503278  0.76004293  0.97696773     0.12800
H1941       H  0.05218593  0.72528036  0.82466363     0.12800
C1942       C  0.07984649  0.69835081  0.85816556     0.62300
F1943       F  0.10124942  0.81309779  0.94899768    -0.22800
F1944       F  0.05225398  0.79434935  0.96670183    -0.20200
F1945       F  0.07082265  0.81362802  0.89818150    -0.19800
F1946       F  0.05305438  0.67194822  0.85075075    -0.19900
F1947       F  0.09891086  0.69186864  0.88138104    -0.20200
F1948       F  0.09381773  0.71067959  0.81773798    -0.22900
C1949       C  0.43218852  0.69669491  0.77935217    -0.05700
C1950       C  0.46369350  0.71012643  0.77380426     0.00200
C1951       C  0.47531778  0.69810560  0.74163902    -0.08400
C1952       C  0.45515626  0.67177163  0.71980428    -0.05700
C1953       C  0.42391330  0.65647771  0.72846077     0.00200
C1954       C  0.41188709  0.67001019  0.75692739    -0.08300
C1955       C  0.37809961  0.65644266  0.76423695     0.62100
H1956       H  0.42365826  0.70655833  0.80293764     0.12800
H1957       H  0.46423433  0.66215745  0.69655721     0.12800
C1958       C  0.00857301  0.71182024  0.72995766     0.62300
F1959       F  0.37158503  0.67100289  0.79730550    -0.22800
F1960       F  0.36487720  0.62653888  0.77622769    -0.20200
F1961       F  0.36535554  0.65890482  0.72568863    -0.19800
F1962       F  0.01848501  0.69341763  0.74680465    -0.19900
F1963       F  0.02698867  0.74054373  0.74501578    -0.20200
F1964       F  0.01199649  0.71301134  0.68427434    -0.22900
C1965       C  0.35832565  0.57641183  0.91701962    -0.05700
C1966       C  0.34817374  0.57848814  0.95951015     0.00200
C1967       C  0.31712612  0.56860397  0.96640554    -0.08400
C1968       C  0.29695203  0.55436436  0.93120096    -0.05700
C1969       C  0.30669273  0.54900545  0.88999427     0.00200
C1970       C  0.33853303  0.56329006  0.88163408    -0.08300
C1971       C  0.35321989  0.56663589  0.83619032     0.62100
H1972       H  0.38232100  0.58511922  0.91149037     0.12800
H1973       H  0.27325125  0.54639727  0.93649637     0.12800
C1974       C  0.30547240  0.57230431  0.67609390     0.62300
F1975       F  0.37831961  0.59511235  0.83150613    -0.22800
F1976       F  0.33400548  0.56310349  0.80223757    -0.20200
F1977       F  0.36276879  0.54602154  0.83193804    -0.19800
F1978       F  0.31767724  0.60257065  0.68417127    -0.19900
F1979       F  0.31370426  0.55964474  0.70945451    -0.20200
F1980       F  0.27428534  0.55893403  0.67741760    -0.22900
C1981       C  0.87098086  0.08772458  0.32884558     0.03200
C1982       C  0.88131883  0.11503959  0.01875047    -0.13000
C1983       C  0.90539330  0.12436487  0.04849963     0.00700
C1984       C  0.91748275  0.10544747  0.05566890    -0.11500
C1985       C  0.90842396  0.07931885  0.36530367     0.03200
C1986       C  0.88376474  0.06973473  0.33728116    -0.10900
H1987       H  0.87383451  0.13038239  0.00921023     0.08800
H1988       H  0.93697909  0.11309161  0.07652963     0.06300
H1989       H  0.87625970  0.04946117  0.31833949     0.06100
C1990       C  0.58547935  0.20846624  0.29364285     0.03200
C1991       C  0.61178858  0.22140195  0.31956807    -0.13000
C1992       C  0.61416238  0.20455580  0.02097507     0.00700
C1993       C  0.59192699  0.17416378  0.02541936    -0.11500
C1994       C  0.56887436  0.16032310  0.32894870     0.03200
C1995       C  0.56404555  0.17775945  0.29873580    -0.10900
H1996       H  0.62923938  0.24430664  0.31288832     0.08800
H1997       H  0.59424240  0.16010091  0.04995810     0.06300
H1998       H  0.54439074  0.16724868  0.27794376     0.06100
C1999       C  0.69383151  0.08610884  0.04866145     0.03200
C2000       C  0.71024985  0.11190923  0.02168883    -0.13000
C2001       C  0.69490062  0.12239196  0.33022744     0.00700
C2002       C  0.66312197  0.10771208  0.33349704    -0.11500
C2003       C  0.64665371  0.08332762  0.02806211     0.03200
C2004       C  0.66225221  0.07279153  0.05299411    -0.10900
H2005       H  0.73464906  0.12302675  0.02001238     0.08800
H2006       H  0.65120803  0.11538548  0.31283442     0.06300
H2007       H  0.64967482  0.05319628  0.07424065     0.06100
C2008       C  0.61272922  0.42584143  0.28389649     0.03200
C2009       C  0.59716989  0.44153490  0.28841275    -0.13000
C2010       C  0.56890182  0.42813934  0.30952308     0.00700
C2011       C  0.55644272  0.40026915  0.99591826    -0.11500
C2012       C  0.57298046  0.38543822  0.99772653     0.03200
C2013       C  0.60139238  0.39787826  0.30605014    -0.10900
H2014       H  0.60700975  0.46421155  0.27548344     0.08800
H2015       H  0.53510391  0.39110173  0.01407766     0.06300
H2016       H  0.61392811  0.38616597  0.30446783     0.06100
C2017       C  0.91692727  0.30470869  0.30894340     0.03200
C2018       C  0.92528431  0.33521017  0.30560941    -0.13000
C2019       C  0.91387950  0.34824364  0.33481145     0.00700
C2020       C  0.89113436  0.33127353  0.03100709    -0.11500
C2021       C  0.88176967  0.30063276  0.03602793     0.03200
C2022       C  0.89514469  0.28696114  0.34228625    -0.11100
H2023       H  0.94136435  0.34944728  0.28016072     0.08800
H2024       H  0.88066937  0.34109640  0.05096048     0.06300
H2025       H  0.88926232  0.26398862  0.34792858     0.06100
C2026       C  0.79243065  0.37645491  0.30234591     0.03200
C2027       C  0.77685681  0.38747414  0.32845169    -0.13000
C2028       C  0.79320250  0.41838558  0.01025612     0.00700
C2029       C  0.82433821  0.43538584  0.00356073    -0.11500
C2030       C  0.83902145  0.42423151  0.31042246     0.03200
C2031       C  0.82350171  0.39535382  0.29312855    -0.10900
H2032       H  0.75288815  0.37354875  0.33546381     0.08800
H2033       H  0.83703791  0.45651934  0.02061150     0.06300
H2034       H  0.83554000  0.38759038  0.27225297     0.06100
O2035       O  0.95705992  0.45689722  0.29415950    -0.88300
C2036       C  0.93968115  0.99739883  0.06400307     0.87700
Mg2037     Mg  0.98977494  0.44338863  0.29727810     1.58100
O2038       O  0.97707003  0.04570764  0.30704424    -0.88000
O2039       O  0.94316401  0.48347193  0.25498314    -0.75400
C2040       C  0.61316954  0.06580593  0.02616400     0.92800
O2041       O  0.96229602  0.44844603  0.06523828    -0.75200
O2042       O  0.59966960  0.03742433  0.03169413    -0.82700
Mg2043     Mg  0.92661409  0.44354421  0.01560844     1.58000
C2044       C  0.55192034  0.12760384  0.32811268     0.92700
O2045       O  0.88836842  0.43271647  0.30189554    -0.80900
H2046       H  0.97814274  0.05436060  0.24231140    -0.06300
C2047       C  0.53123622  0.04853917  0.07351050     0.87700
O2048       O  0.52454924  0.48461558  0.25768272    -0.75400
O2049       O  0.93955227  0.48995840  0.02513176    -0.88200
O2050       O  0.52377805  0.11348411  0.33761817    -0.81000
C2051       C  0.92611979  0.06434006  0.02817117     0.92800
C2052       C  0.87156750  0.44404121  0.30438328     0.92700
Mg2053     Mg  0.55537460  0.06702548  0.31211048     1.58000
O2054       O  0.59900848  0.07925010  0.01546033    -0.80900
O2055       O  0.51832332  0.06120153  0.26497262    -0.75200
O2056       O  0.91457520  0.03818664  0.01145712    -0.81000
O2057       O  0.91191572  0.39427506  0.00822073    -0.82700
O2058       O  0.56511504  0.47110094  0.32448426    -0.81100
C2059       C  0.99041949  0.05398062  0.27083397     0.87100
O2060       O  0.54390534  0.02127979  0.30529212    -0.88200
O2061       O  0.52537277  0.05488616  0.03695049    -0.88300
O2062       O  0.53922299  0.02906220  0.07781107    -0.75400
Mg2063     Mg  0.93116239  0.01075032  0.30572642     1.58000
O2064       O  0.95412028  0.07959375  0.03710033    -0.82700
H2065       H  0.95596039  0.45545585  0.22796206    -0.06500
O2066       O  0.50366434  0.46653492  0.02414404    -0.88000
H2067       H  0.50155326  0.45533728  0.08813418    -0.06300
H2068       H  0.55914058  0.02806457  0.24249237    -0.06500
C2069       C  0.99021960  0.45702524  0.06107228     0.87100
C2070       C  0.95214728  0.46463181  0.25792072     0.87700
C2071       C  0.54375045  0.01246564  0.26736038     0.87700
H2072       H  0.52870299  0.05924125  0.10271762    -0.06400
O2073       O  0.95816171  0.02418803  0.07512674    -0.75500
Mg2074     Mg  0.55018697  0.00099969  0.03017574     1.58000
H2075       H  0.92780667  0.48252586  0.08941305    -0.06500
C2076       C  0.92813550  0.38258007  0.00078885     0.92700
O2077       O  0.52382976  0.42896660  0.30422935    -0.82700
C2078       C  0.55181186  0.44377944  0.31228409     0.92800
O2079       O  0.88243702  0.47223152  0.30629436    -0.82700
Mg2080     Mg  0.49071998  0.06715148  0.03641790     1.58200
O2081       O  0.95609814  0.39852369  0.99089753    -0.81000
O2082       O  0.56696069  0.11455329  0.32091284    -0.82700
C2083       C  0.52747512  0.25737043  0.18850112     0.86500
C2084       C  0.00391843  0.22955098  0.16448554    -0.53700
C2085       C  0.98434062  0.23388203  0.14018019     0.09500
C2086       C  0.98919774  0.26604447  0.14452858     0.20400
C2087       C  0.54160860  0.28175974  0.15208761    -0.54400
C2088       C  0.52172556  0.28705149  0.12904907     0.09600
C2089       C  0.00926315  0.26637469  0.21746429    -0.54000
C2090       C  0.98917211  0.27135462  0.19519276     0.10100
H2091       H  0.00253191  0.20784669  0.16541727     0.14700
H2092       H  0.97215658  0.26924849  0.12766185     0.00400
H2093       H  0.56574135  0.29350568  0.14482748     0.15000
H2094       H  0.01033809  0.26734964  0.25315456     0.14800
C2095       C  0.76298413  0.48638221  0.13420725     0.86500
C2096       C  0.78925136  0.00779479  0.16465823    -0.53700
C2097       C  0.78403893  0.02642735  0.19116608     0.09500
C2098       C  0.75149050  0.02115407  0.18588802     0.20400
C2099       C  0.73537422  0.46854976  0.16508538    -0.54400
C2100       C  0.72933221  0.48573758  0.19291972     0.09600
C2101       C  0.75594594  0.00932185  0.10946435    -0.54000
C2102       C  0.74953531  0.02671671  0.13621934     0.10100
H2103       H  0.80971849  0.00666649  0.16561930     0.14700
H2104       H  0.74533469  0.03455004  0.20765695     0.00400
H2105       H  0.72043858  0.44444253  0.16314979     0.15000
H2106       H  0.75285679  0.00905829  0.07395899     0.14800
C2107       C  0.71650207  0.23420392  0.13843193     0.86500
C2108       C  0.71036155  0.21102905  0.17467110    -0.53700
C2109       C  0.73464249  0.21685354  0.19919648     0.09500
C2110       C  0.76365124  0.24683258  0.18635683     0.20400
C2111       C  0.72869495  0.26308175  0.16588081    -0.54400
C2112       C  0.75393389  0.27096893  0.19094692     0.09600
C2113       C  0.74430069  0.23859649  0.11164835    -0.54000
C2114       C  0.76899082  0.24494748  0.13609844     0.10100
H2115       H  0.68793313  0.19368205  0.18487187     0.14700
H2116       H  0.78320124  0.25021929  0.20503658     0.00400
H2117       H  0.71498963  0.27310807  0.17190210     0.15000
H2118       H  0.74474996  0.23837825  0.07573655     0.14800
C2119       C  0.76773027  0.42069605  0.07875404    -0.05700
C2120       C  0.77936784  0.43277085  0.03670502     0.00200
C2121       C  0.78668040  0.46270473  0.02702187    -0.08400
C2122       C  0.78288617  0.47947420  0.06027990    -0.05700
C2123       C  0.77061026  0.46745107  0.10260214     0.00200
C2124       C  0.76576071  0.43832230  0.11288479    -0.08300
C2125       C  0.76321048  0.42622560  0.15939884     0.62100
H2126       H  0.76406921  0.39856478  0.08671085     0.12800
H2127       H  0.79053539  0.50274743  0.05300821     0.12800
C2128       C  0.80068350  0.47705858  0.31658265     0.62300
F2129       F  0.78213860  0.41444776  0.16244934    -0.22800
F2130       F  0.73374935  0.40374714  0.16802880    -0.20200
F2131       F  0.77207519  0.44795553  0.19139388    -0.19800
F2132       F  0.79275637  0.45654741  0.28272282    -0.19900
F2133       F  0.83176565  0.49327142  0.31958625    -0.20200
F2134       F  0.79142555  0.49701344  0.30535226    -0.22900
C2135       C  0.78844117  0.32714003  0.28962721    -0.05700
C2136       C  0.77744140  0.34652134  0.28073262     0.00200
C2137       C  0.75937527  0.34107885  0.24357441    -0.08400
C2138       C  0.75621320  0.31894409  0.21358846    -0.05700
C2139       C  0.76544879  0.29775529  0.22267949     0.00200
C2140       C  0.78237866  0.30240432  0.26242024    -0.08300
C2141       C  0.79605277  0.28358002  0.27647682     0.62100
H2142       H  0.80307109  0.33254430  0.31775222     0.12800
H2143       H  0.74610605  0.31840452  0.18234189     0.12800
C2144       C  0.74286783  0.35814629  0.23603677     0.62300
F2145       F  0.80942277  0.29175248  0.31748648    -0.22800
F2146       F  0.81844449  0.28762154  0.24638924    -0.20200
F2147       F  0.77402620  0.25374121  0.28014103    -0.19800
F2148       F  0.76282596  0.38868762  0.23658180    -0.19900
F2149       F  0.72137068  0.35078001  0.26939137    -0.20200
F2150       F  0.72813251  0.35100110  0.19604388    -0.22900
C2151       C  0.82493372  0.27968812  0.13174701    -0.05700
C2152       C  0.79948779  0.25423750  0.11515975     0.00200
C2153       C  0.80377185  0.24010050  0.07747686    -0.08400
C2154       C  0.83136419  0.25515926  0.05311348    -0.05700
C2155       C  0.85611866  0.28197338  0.06803246     0.00200
C2156       C  0.85354621  0.29251548  0.11055608    -0.08300
C2157       C  0.88011538  0.31680862  0.13546665     0.62100
H2158       H  0.82255604  0.29011291  0.16141795     0.12800
H2159       H  0.83334143  0.24608318  0.02170475     0.12800
C2160       C  0.78043377  0.20888793  0.06294363     0.62300
F2161       F  0.87982203  0.30662535  0.17803416    -0.22800
F2162       F  0.87754416  0.34219480  0.13801962    -0.20200
F2163       F  0.90769777  0.32434844  0.11599617    -0.19800
F2164       F  0.76375203  0.21080188  0.02897365    -0.19900
F2165       F  0.76150426  0.19228276  0.09784514    -0.20200
F2166       F  0.79455176  0.19362154  0.04784178    -0.22900
C2167       C  0.93872458  0.25970805  0.22765461    -0.05700
C2168       C  0.96947612  0.28067690  0.21952798     0.00200
C2169       C  0.98188655  0.30931986  0.23893201    -0.08400
C2170       C  0.96459555  0.31450740  0.27040679    -0.05700
C2171       C  0.93365591  0.29391341  0.27911109     0.00200
C2172       C  0.92015080  0.26624882  0.25552973    -0.08300
C2173       C  0.88654570  0.24353256  0.25857866     0.62100
H2174       H  0.92931945  0.23792501  0.21226142     0.12800
H2175       H  0.97555167  0.33535469  0.28843139     0.12800
C2176       C  0.51206020  0.33528533  0.22411535     0.62300
F2177       F  0.87744180  0.22441355  0.22272897    -0.22800
F2178       F  0.86985221  0.25782341  0.25872865    -0.20200
F2179       F  0.88013520  0.22625658  0.29662123    -0.19800
F2180       F  0.51768106  0.36259463  0.24079101    -0.19900
F2181       F  0.51340886  0.33755209  0.17839513    -0.20200
F2182       F  0.53440924  0.33025969  0.23840988    -0.22900
C2183       C  0.53341853  0.33405983  0.02159741    -0.05700
C2184       C  0.56191923  0.35916785  0.02873929     0.00200
C2185       C  0.57635102  0.36106073  0.06907877    -0.08400
C2186       C  0.56151140  0.33779300  0.10091432    -0.05700
C2187       C  0.53324130  0.31169405  0.09355052     0.00200
C2188       C  0.51898387  0.30994614  0.05233372    -0.08300
C2189       C  0.98986854  0.28341514  0.03833028     0.62100
H2190       H  0.52210391  0.33384028  0.99157842     0.12800
H2191       H  0.57222488  0.34001713  0.13233787     0.12800
C2192       C  0.60713599  0.38790797  0.07890394     0.62300
F2193       F  0.98574314  0.28309763  0.99317728    -0.22800
F2194       F  0.96631880  0.28462632  0.05916868    -0.20200
F2195       F  0.98884107  0.25704727  0.04851889    -0.19800
F2196       F  0.60668882  0.41421986  0.07261461    -0.19900
F2197       F  0.62873042  0.38793314  0.05085753    -0.20200
F2198       F  0.61559202  0.38731204  0.12202423    -0.22900
C2199       C  0.66772256  0.44513871  0.28193879    -0.05700
C2200       C  0.64210026  0.44027077  0.25919037     0.00200
C2201       C  0.64531798  0.45055382  0.21459824    -0.08400
C2202       C  0.67448410  0.46657418  0.19520334    -0.05700
C2203       C  0.70016011  0.47198955  0.21831478     0.00200
C2204       C  0.69672203  0.46067680  0.26212917    -0.08300
C2205       C  0.72359936  0.46569490  0.28829578     0.62100
H2206       H  0.66487718  0.43728196  0.31594990     0.12800
H2207       H  0.67748594  0.47467361  0.16130399     0.12800
C2208       C  0.61830207  0.44383801  0.18659316     0.62300
F2209       F  0.74158323  0.49600888  0.29533199    -0.22800
F2210       F  0.73958269  0.45504864  0.26495600    -0.20200
F2211       F  0.71535981  0.45130173  0.32922239    -0.19800
F2212       F  0.60762116  0.46283789  0.19740805    -0.19900
F2213       F  0.59545089  0.41432328  0.19290441    -0.20200
F2214       F  0.62610849  0.44806808  0.14204557    -0.22900
C2215       C  0.71047935  0.02656623  0.08987371    -0.05700
C2216       C  0.73523708  0.04313400  0.11732687     0.00200
C2217       C  0.74768353  0.07462588  0.12039014    -0.08400
C2218       C  0.73356835  0.08805893  0.09762501    -0.05700
C2219       C  0.70900925  0.07130044  0.06972641     0.00200
C2220       C  0.69858528  0.04032825  0.06365112    -0.08300
C2221       C  0.67689352  0.02172621  0.36156618     0.62100
H2222       H  0.70150671  0.00259742  0.08670323     0.12800
H2223       H  0.74169825  0.11181025  0.10127239     0.12800
C2224       C  0.77632172  0.09409113  0.14574248     0.62300
F2225       F  0.68434209  0.00126843  0.34484164    -0.22800
F2226       F  0.67800184  0.03942459  0.32627835    -0.20200
F2227       F  0.64776474  0.00605227  0.37893645    -0.19800
F2228       F  0.79895294  0.08893061  0.13100025    -0.19900
F2229       F  0.77108333  0.08752747  0.19048309    -0.20200
F2230       F  0.78649619  0.12438081  0.13986666    -0.22900
C2231       C  0.70609271  0.17292994  0.30760864    -0.05700
C2232       C  0.71114477  0.14906605  0.30000037     0.00200
C2233       C  0.72719013  0.14950543  0.26090438    -0.08400
C2234       C  0.73731141  0.17400300  0.23085414    -0.05700
C2235       C  0.73065569  0.19702531  0.23767924     0.00200
C2236       C  0.71457262  0.19634280  0.27691090    -0.08300
C2237       C  0.70401963  0.21832593  0.28809715     0.62100
H2238       H  0.69371149  0.17247755  0.33701749     0.12800
H2239       H  0.74879319  0.17436384  0.20021829     0.12800
C2240       C  0.73190935  0.12348932  0.24937021     0.62300
F2241       F  0.71510782  0.23096781  0.32884488    -0.22800
F2242       F  0.67278712  0.20301266  0.29024662    -0.20200
F2243       F  0.71313778  0.24131669  0.25790799    -0.19800
F2244       F  0.70459848  0.09671353  0.25140660    -0.19900
F2245       F  0.75162576  0.12220218  0.27867721    -0.20200
F2246       F  0.74399816  0.12653715  0.20704336    -0.22900
C2247       C  0.65323314  0.19553631  0.05187444    -0.05700
C2248       C  0.64206911  0.21530421  0.04785444     0.00200
C2249       C  0.65481557  0.24129531  0.07427449    -0.08400
C2250       C  0.67954868  0.24729014  0.10099302    -0.05700
C2251       C  0.68904138  0.22609451  0.10839831     0.00200
C2252       C  0.67374753  0.19850798  0.08448289    -0.08300
C2253       C  0.67607850  0.17066684  0.09443433     0.62100
H2254       H  0.64365881  0.17596305  0.03098215     0.12800
H2255       H  0.69131048  0.26916179  0.11552410     0.12800
C2256       C  0.64242511  0.26256343  0.07572455     0.62300
F2257       F  0.66067628  0.14802534  0.06437611    -0.22800
F2258       F  0.66274320  0.15843364  0.13500093    -0.20200
F2259       F  0.70567883  0.17739231  0.09356162    -0.19800
F2260       F  0.61115181  0.24662591  0.07774501    -0.19900
F2261       F  0.65219636  0.28100751  0.03861046    -0.20200
F2262       F  0.65217004  0.28063166  0.11272086    -0.22900
C2263       C  0.57756214  0.25100221  0.27772070    -0.05700
C2264       C  0.57942990  0.22655766  0.26160155     0.00200
C2265       C  0.57169154  0.21786028  0.21705002    -0.08400
C2266       C  0.55742608  0.23043079  0.19313768    -0.05700
C2267       C  0.55088467  0.25164009  0.21183041     0.00200
C2268       C  0.56549861  0.26515650  0.25220773    -0.08300
C2269       C  0.57210247  0.29576774  0.26735453     0.62100
H2270       H  0.58552211  0.25911095  0.31071687     0.12800
H2271       H  0.55065740  0.22285355  0.15963697     0.12800
C2272       C  0.57700415  0.19481186  0.19373555     0.62300
F2273       F  0.60118255  0.31177018  0.28331417    -0.22800
F2274       F  0.55218810  0.29279515  0.30107456    -0.20200
F2275       F  0.57069614  0.31232794  0.23264139    -0.19800
F2276       F  0.54958745  0.16865814  0.18845253    -0.19900
F2277       F  0.59616046  0.18824500  0.21653322    -0.20200
F2278       F  0.59004434  0.20571824  0.15235017    -0.22900
C2279       C  0.93212703  0.19622135  0.11659501    -0.05700
C2280       C  0.96353754  0.20991595  0.10935854     0.00200
C2281       C  0.97461167  0.19778567  0.07660257    -0.08400
C2282       C  0.95411340  0.17127212  0.05545649    -0.05700
C2283       C  0.92302357  0.15586952  0.06543691     0.00200
C2284       C  0.91146523  0.16929734  0.09497426    -0.08300
C2285       C  0.87781570  0.15533376  0.10431094     0.62100
H2286       H  0.92400203  0.20606340  0.14085493     0.12800
H2287       H  0.96282934  0.16160537  0.03169824     0.12800
C2288       C  0.50742374  0.21151917  0.06297193     0.62300
F2289       F  0.87192688  0.16964535  0.13847695    -0.22800
F2290       F  0.86522185  0.12546213  0.11604005    -0.20200
F2291       F  0.86391864  0.15758077  0.06690729    -0.19800
F2292       F  0.51756776  0.19269633  0.07714852    -0.19900
F2293       F  0.52608760  0.23978087  0.07939012    -0.20200
F2294       F  0.51016786  0.21392244  0.01722862    -0.22900
C2295       C  0.85911232  0.07582797  0.24984794    -0.05700
C2296       C  0.84893532  0.07842861  0.29206390     0.00200
C2297       C  0.81791265  0.06869399  0.29866867    -0.08400
C2298       C  0.79784605  0.05454047  0.26334637    -0.05700
C2299       C  0.80752170  0.04871052  0.22243273     0.00200
C2300       C  0.83937746  0.06243666  0.21442042    -0.08300
C2301       C  0.85415916  0.06475038  0.16934522     0.62100
H2302       H  0.88307390  0.08420956  0.24465107     0.12800
H2303       H  0.77421466  0.04691820  0.26842936     0.12800
C2304       C  0.80404536  0.07259314  0.01118677     0.62300
F2305       F  0.88006704  0.09262572  0.16437025    -0.22800
F2306       F  0.83545122  0.06174221  0.13490523    -0.20200
F2307       F  0.86250675  0.04317306  0.16621004    -0.19800
F2308       F  0.81622916  0.10283871  0.01943275    -0.19900
F2309       F  0.81180458  0.05973847  0.04485586    -0.20200
F2310       F  0.77286382  0.05932182  0.01170666    -0.22900
C2311       C  0.86929982  0.08662616  0.66327324     0.03200
C2312       C  0.88297441  0.11584978  0.34981545    -0.13000
C2313       C  0.90649058  0.12503570  0.38057009     0.00700
C2314       C  0.91837889  0.10604289  0.38860424    -0.11500
C2315       C  0.90740282  0.07862956  0.69834015     0.03200
C2316       C  0.88210755  0.06865481  0.67158276    -0.10900
H2317       H  0.87562034  0.13119282  0.33970548     0.08800
H2318       H  0.93746253  0.11352868  0.41027716     0.06300
H2319       H  0.87422445  0.04816212  0.65309906     0.06100
C2320       C  0.58454340  0.20876882  0.62830260     0.03200
C2321       C  0.61049775  0.22161074  0.65492426    -0.13000
C2322       C  0.61554847  0.20408799  0.35249670     0.00700
C2323       C  0.59303873  0.17381607  0.35750036    -0.11500
C2324       C  0.56809891  0.16021218  0.66211754     0.03200
C2325       C  0.56340610  0.17789828  0.63218051    -0.10900
H2326       H  0.62774540  0.24476402  0.64934342     0.08800
H2327       H  0.59509486  0.15984231  0.38247767     0.06300
H2328       H  0.54403314  0.16752081  0.61083258     0.06100
C2329       C  0.69386089  0.08598470  0.38305694     0.03200
C2330       C  0.71022647  0.11171241  0.35590052    -0.13000
C2331       C  0.69449207  0.12196987  0.66254340     0.00700
C2332       C  0.66270790  0.10749914  0.66575818    -0.11500
C2333       C  0.64657937  0.08277664  0.36189159     0.03200
C2334       C  0.66224374  0.07247101  0.38711305    -0.10900
H2335       H  0.73463622  0.12285749  0.35409365     0.08800
H2336       H  0.65099393  0.11572415  0.64573348     0.06300
H2337       H  0.64969632  0.05300437  0.40858601     0.06100
C2338       C  0.61136496  0.42512902  0.61435988     0.03200
C2339       C  0.59611084  0.44108054  0.61901037    -0.13000
C2340       C  0.56780352  0.42783816  0.63988669     0.00700
C2341       C  0.55739152  0.40015353  0.33055246    -0.11500
C2342       C  0.57416422  0.38555526  0.33109238     0.03200
C2343       C  0.59979263  0.39710419  0.63642914    -0.10900
H2344       H  0.60621118  0.46384094  0.60626257     0.08800
H2345       H  0.53613123  0.39058755  0.34901622     0.06300
H2346       H  0.61217589  0.38524305  0.63478150     0.06100
C2347       C  0.91561524  0.30582203  0.63854214     0.03200
C2348       C  0.92362375  0.33618671  0.63467571    -0.13000
C2349       C  0.91206504  0.34917480  0.66363217     0.00700
C2350       C  0.89065600  0.32996670  0.36459421    -0.11500
C2351       C  0.88132896  0.29934259  0.36955543     0.03200
C2352       C  0.89389052  0.28812151  0.67199361    -0.11100
H2353       H  0.93966732  0.35040781  0.60918096     0.08800
H2354       H  0.88042010  0.33984247  0.38493937     0.06300
H2355       H  0.88831192  0.26528014  0.67808857     0.06100
C2356       C  0.79187430  0.37770002  0.63403991     0.03200
C2357       C  0.77636080  0.38853442  0.66073292    -0.13000
C2358       C  0.79282526  0.41708563  0.34484215     0.00700
C2359       C  0.82395306  0.43389307  0.33817304    -0.11500
C2360       C  0.83828062  0.42579918  0.64113893     0.03200
C2361       C  0.82277853  0.39689121  0.62396358    -0.10900
H2362       H  0.75249428  0.37440869  0.66832366     0.08800
H2363       H  0.83676478  0.45496858  0.35533133     0.06300
H2364       H  0.83475466  0.38926075  0.60269380     0.06100
O2365       O  0.95641325  0.45829878  0.62499074    -0.88300
C2366       C  0.94114913  0.99836774  0.39945835     0.87700
Mg2367     Mg  0.98883711  0.44431244  0.62818801     1.58100
O2368       O  0.97625293  0.04570941  0.63763245    -0.88000
O2369       O  0.94265105  0.48509954  0.58614460    -0.75400
C2370       C  0.61310883  0.06512069  0.35973359     0.92800
O2371       O  0.96101653  0.44676980  0.39973956    -0.75200
O2372       O  0.59961767  0.03671736  0.36509425    -0.82700
Mg2373     Mg  0.92569855  0.44205429  0.34953883     1.58000
C2374       C  0.55117577  0.12750644  0.66079404     0.92700
O2375       O  0.88766946  0.43453131  0.63121730    -0.80900
H2376       H  0.97804761  0.05536100  0.57314531    -0.06300
C2377       C  0.53108619  0.04804371  0.40600028     0.87700
O2378       O  0.52463237  0.48575713  0.58882477    -0.75400
O2379       O  0.93842640  0.48840700  0.35948068    -0.88200
O2380       O  0.52308535  0.11331168  0.67071840    -0.81000
C2381       C  0.92731994  0.06495954  0.36216366     0.92800
C2382       C  0.87079021  0.44573601  0.63456671     0.92700
Mg2383     Mg  0.55459585  0.06703333  0.64370808     1.58000
O2384       O  0.59896721  0.07854147  0.34887753    -0.80900
O2385       O  0.51724340  0.06139696  0.59728742    -0.75200
O2386       O  0.91552715  0.03839740  0.34695073    -0.81000
O2387       O  0.91120132  0.39288807  0.34164455    -0.82700
O2388       O  0.56452141  0.47106896  0.65478660    -0.81100
C2389       C  0.98999937  0.05453190  0.60177745     0.87100
O2390       O  0.54302578  0.02134898  0.63630009    -0.88200
O2391       O  0.52545153  0.05449628  0.36934807    -0.88300
O2392       O  0.53894361  0.02847767  0.41044647    -0.75400
Mg2393     Mg  0.93026534  0.01086285  0.63523947     1.58000
O2394       O  0.95544371  0.08044858  0.37027323    -0.82700
H2395       H  0.95564873  0.45732776  0.55875302    -0.06500
O2396       O  0.50361541  0.46610175  0.36105653    -0.88000
H2397       H  0.50151289  0.45581594  0.42543822    -0.06300
H2398       H  0.55810557  0.02844332  0.57341539    -0.06500
C2399       C  0.98899887  0.45552428  0.39596641     0.87100
C2400       C  0.95169176  0.46629136  0.58882801     0.87700
C2401       C  0.54271845  0.01273890  0.59818609     0.87700
H2402       H  0.52846563  0.05873561  0.43515391    -0.06400
O2403       O  0.95966038  0.02532433  0.40981478    -0.75500
Mg2404     Mg  0.54998395  0.00038490  0.36297653     1.58000
H2405       H  0.92624263  0.48062232  0.42359228    -0.06500
C2406       C  0.92743050  0.38120540  0.33419934     0.92700
O2407       O  0.52309242  0.42921189  0.63407720    -0.82700
C2408       C  0.55101763  0.44376272  0.64247669     0.92800
O2409       O  0.88164427  0.47390063  0.63704590    -0.82700
Mg2410     Mg  0.49107042  0.06712030  0.36837010     1.58200
O2411       O  0.95546173  0.39717723  0.32472214    -0.81000
O2412       O  0.56623419  0.11453523  0.65305701    -0.82700
C2413       C  0.52687064  0.25718457  0.52152447     0.86500
C2414       C  0.00316663  0.22964722  0.49978514    -0.53700
C2415       C  0.98402055  0.23403288  0.47451179     0.09500
C2416       C  0.98925876  0.26637257  0.47777182     0.20400
C2417       C  0.54174758  0.28123530  0.48480378    -0.54400
C2418       C  0.52238892  0.28651710  0.46040966     0.09600
C2419       C  0.00895152  0.26744816  0.55135275    -0.54000
C2420       C  0.98907023  0.27230086  0.52821037     0.10100
H2421       H  0.00157379  0.20786198  0.50143527     0.14700
H2422       H  0.97248320  0.26965483  0.46025644     0.00400
H2423       H  0.56598095  0.29280144  0.47845756     0.15000
H2424       H  0.01025550  0.26926375  0.58703418     0.14800
C2425       C  0.76311163  0.48625659  0.46766234     0.86500
C2426       C  0.78764184  0.00616417  0.49990531    -0.53700
C2427       C  0.78220754  0.02462776  0.52644472     0.09500
C2428       C  0.74986168  0.01964229  0.52038080     0.20400
C2429       C  0.73496988  0.46837855  0.49756542    -0.54400
C2430       C  0.72869508  0.48544103  0.52530114     0.09600
C2431       C  0.75545132  0.00883426  0.44387185    -0.54000
C2432       C  0.74880085  0.02597287  0.47077534     0.10100
H2433       H  0.80802989  0.00491884  0.50129680     0.14700
H2434       H  0.74354196  0.03288794  0.54224111     0.00400
H2435       H  0.71997018  0.44429905  0.49515213     0.15000
H2436       H  0.75282978  0.00906742  0.40830498     0.14800
C2437       C  0.71683138  0.23414729  0.47230245     0.86500
C2438       C  0.71078072  0.21130311  0.50903782    -0.53700
C2439       C  0.73512880  0.21749579  0.53367911     0.09500
C2440       C  0.76403454  0.24741685  0.52043616     0.20400
C2441       C  0.72884764  0.26320486  0.49922152    -0.54400
C2442       C  0.75416735  0.27150434  0.52434038     0.09600
C2443       C  0.74462086  0.23842012  0.44576385    -0.54000
C2444       C  0.76930209  0.24500691  0.47030733     0.10100
H2445       H  0.68844882  0.19365725  0.51899583     0.14700
H2446       H  0.78359568  0.25097332  0.53921848     0.00400
H2447       H  0.71478501  0.27287398  0.50499417     0.15000
H2448       H  0.74502287  0.23786011  0.40987470     0.14800
C2449       C  0.76789543  0.42017188  0.41345678    -0.05700
C2450       C  0.77922082  0.43178485  0.37112288     0.00200
C2451       C  0.78644310  0.46161557  0.36078564    -0.08400
C2452       C  0.78272104  0.47869889  0.39366844    -0.05700
C2453       C  0.77075297  0.46713645  0.43633553     0.00200
C2454       C  0.76598548  0.43809045  0.44718041    -0.08300
C2455       C  0.76288823  0.42599418  0.49381609     0.62100
H2456       H  0.76427589  0.39812204  0.42187602     0.12800
H2457       H  0.79035287  0.50187885  0.38588570     0.12800
C2458       C  0.79968845  0.47817842  0.64947107     0.62300
F2459       F  0.78215977  0.41468397  0.49794850    -0.22800
F2460       F  0.73344290  0.40314633  0.50141596    -0.20200
F2461       F  0.77078778  0.44752247  0.52589950    -0.19800
F2462       F  0.79205865  0.45770269  0.61561658    -0.19900
F2463       F  0.83076217  0.49504802  0.65211132    -0.20200
F2464       F  0.78961921  0.49751845  0.63852333    -0.22900
C2465       C  0.78902486  0.32884570  0.62171887    -0.05700
C2466       C  0.77709190  0.34748948  0.61316786     0.00200
C2467       C  0.75823551  0.34111223  0.57674099    -0.08400
C2468       C  0.75543578  0.31909373  0.54679279    -0.05700
C2469       C  0.76551659  0.29852673  0.55567624     0.00200
C2470       C  0.78312485  0.30397738  0.59490756    -0.08300
C2471       C  0.79757224  0.28583452  0.60887581     0.62100
H2472       H  0.80417197  0.33490348  0.64931304     0.12800
H2473       H  0.74485200  0.31812720  0.51583943     0.12800
C2474       C  0.74020052  0.35673787  0.57024764     0.62300
F2475       F  0.81184206  0.29497330  0.64914138    -0.22800
F2476       F  0.81945999  0.28967297  0.57798640    -0.20200
F2477       F  0.77591937  0.25592807  0.61401161    -0.19800
F2478       F  0.75891437  0.38748686  0.57063553    -0.19900
F2479       F  0.71903512  0.34838454  0.60434764    -0.20200
F2480       F  0.72486625  0.34892992  0.53074113    -0.22900
C2481       C  0.82529198  0.27909934  0.46576057    -0.05700
C2482       C  0.79963988  0.25376767  0.44941667     0.00200
C2483       C  0.80358206  0.23928777  0.41187502    -0.08400
C2484       C  0.83104379  0.25404517  0.38723582    -0.05700
C2485       C  0.85598158  0.28078313  0.40190019     0.00200
C2486       C  0.85379341  0.29148488  0.44444449    -0.08300
C2487       C  0.88067166  0.31546346  0.46920746     0.62100
H2488       H  0.82317546  0.28981266  0.49524211     0.12800
H2489       H  0.83276589  0.24481805  0.35582366     0.12800
C2490       C  0.78003932  0.20803099  0.39781582     0.62300
F2491       F  0.88044037  0.30503739  0.51158247    -0.22800
F2492       F  0.87855965  0.34108930  0.47227591    -0.20200
F2493       F  0.90803439  0.32268084  0.44926372    -0.19800
F2494       F  0.76315164  0.20980886  0.36403716    -0.19900
F2495       F  0.76135734  0.19170150  0.43307799    -0.20200
F2496       F  0.79393017  0.19256437  0.38264446    -0.22900
C2497       C  0.93846575  0.26052954  0.55973961    -0.05700
C2498       C  0.96912399  0.28170563  0.55145253     0.00200
C2499       C  0.98111096  0.31066986  0.56955034    -0.08400
C2500       C  0.96357089  0.31600959  0.60035912    -0.05700
C2501       C  0.93270502  0.29515406  0.60930131     0.00200
C2502       C  0.91957189  0.26717583  0.58661111    -0.08300
C2503       C  0.88602669  0.24423569  0.58944882     0.62100
H2504       H  0.92936061  0.23851836  0.54518289     0.12800
H2505       H  0.97428655  0.33715018  0.61765097     0.12800
C2506       C  0.51091540  0.33593181  0.55198127     0.62300
F2507       F  0.87727364  0.22503917  0.55370396    -0.22800
F2508       F  0.86906040  0.25823535  0.58907887    -0.20200
F2509       F  0.87961013  0.22710252  0.62764586    -0.19800
F2510       F  0.51632828  0.36313913  0.56882000    -0.19900
F2511       F  0.51192926  0.33818264  0.50625973    -0.20200
F2512       F  0.53360463  0.33127714  0.56575020    -0.22900
C2513       C  0.53514419  0.33374505  0.35312066    -0.05700
C2514       C  0.56341950  0.35891321  0.36103100     0.00200
C2515       C  0.57782385  0.36040404  0.40122090    -0.08400
C2516       C  0.56270553  0.33707458  0.43281190    -0.05700
C2517       C  0.53451734  0.31103978  0.42485597     0.00200
C2518       C  0.52077214  0.30929013  0.38319299    -0.08300
C2519       C  0.99113163  0.28275687  0.37072001     0.62100
H2520       H  0.52403426  0.33363151  0.32291346     0.12800
H2521       H  0.57317276  0.33917954  0.46441373     0.12800
C2522       C  0.60900302  0.38667094  0.41093496     0.62300
F2523       F  0.98769875  0.28251071  0.32538596    -0.22800
F2524       F  0.96695785  0.28332720  0.39054165    -0.20200
F2525       F  0.99059007  0.25666677  0.38124981    -0.19800
F2526       F  0.60957379  0.41346371  0.40446809    -0.19900
F2527       F  0.63013365  0.38582674  0.38287478    -0.20200
F2528       F  0.61734056  0.38585467  0.45406099    -0.22900
C2529       C  0.66644007  0.44527845  0.61368883    -0.05700
C2530       C  0.64087190  0.43958711  0.59009810     0.00200
C2531       C  0.64424499  0.44927060  0.54518117    -0.08400
C2532       C  0.67354094  0.46531529  0.52608881    -0.05700
C2533       C  0.69920537  0.47157214  0.55003778     0.00200
C2534       C  0.69555330  0.46091272  0.59428635    -0.08300
C2535       C  0.72230945  0.46650919  0.62119668     0.62100
H2536       H  0.66342782  0.43791031  0.64797618     0.12800
H2537       H  0.67668830  0.47280990  0.49186393     0.12800
C2538       C  0.61718674  0.44172382  0.51670154     0.62300
F2539       F  0.74008854  0.49694254  0.62733774    -0.22800
F2540       F  0.73851071  0.45566049  0.59896013    -0.20200
F2541       F  0.71392303  0.45271504  0.66253742    -0.19800
F2542       F  0.60447687  0.45880434  0.52858895    -0.19900
F2543       F  0.59569300  0.41156443  0.52132024    -0.20200
F2544       F  0.62550019  0.44763953  0.47244941    -0.22900
C2545       C  0.71028477  0.02630568  0.42395475    -0.05700
C2546       C  0.73484609  0.04265846  0.45178422     0.00200
C2547       C  0.74751611  0.07417773  0.45493467    -0.08400
C2548       C  0.73351254  0.08780242  0.43232698    -0.05700
C2549       C  0.70902592  0.07119356  0.40422514     0.00200
C2550       C  0.69869304  0.04029667  0.39765934    -0.08300
C2551       C  0.67741444  0.02006097  0.69242461     0.62100
H2552       H  0.70123776  0.00233672  0.42063721     0.12800
H2553       H  0.74175626  0.11156909  0.43606154     0.12800
C2554       C  0.77639651  0.09343663  0.47988803     0.62300
F2555       F  0.68882128  0.00362315  0.67241908    -0.22800
F2556       F  0.67456213  0.03700875  0.65940114    -0.20200
F2557       F  0.64917517  0.00032924  0.71049208    -0.19800
F2558       F  0.79891107  0.08851625  0.46378582    -0.19900
F2559       F  0.77168497  0.08636012  0.52452338    -0.20200
F2560       F  0.78642628  0.12376201  0.47500041    -0.22900
C2561       C  0.70619252  0.17291356  0.64123129    -0.05700
C2562       C  0.71109974  0.14900843  0.63307483     0.00200
C2563       C  0.72764524  0.14992916  0.59425473    -0.08400
C2564       C  0.73805731  0.17475001  0.56479538    -0.05700
C2565       C  0.73142015  0.19773334  0.57203868     0.00200
C2566       C  0.71523512  0.19681036  0.61124818    -0.08300
C2567       C  0.70514312  0.21906174  0.62299244     0.62100
H2568       H  0.69358106  0.17219206  0.67052684     0.12800
H2569       H  0.74975863  0.17541304  0.53422917     0.12800
C2570       C  0.73270077  0.12416980  0.58232582     0.62300
F2571       F  0.71610743  0.23111049  0.66406243    -0.22800
F2572       F  0.67391833  0.20421163  0.62475307    -0.20200
F2573       F  0.71486233  0.24245903  0.59336258    -0.19800
F2574       F  0.70558230  0.09720035  0.58421990    -0.19900
F2575       F  0.75262118  0.12305653  0.61141654    -0.20200
F2576       F  0.74478169  0.12751413  0.53992963    -0.22900
C2577       C  0.65396724  0.19481517  0.38542201    -0.05700
C2578       C  0.64332866  0.21492198  0.37980905     0.00200
C2579       C  0.65645039  0.24144111  0.40515033    -0.08400
C2580       C  0.68076811  0.24734965  0.43272908    -0.05700
C2581       C  0.68956364  0.22583611  0.44184247     0.00200
C2582       C  0.67422622  0.19799891  0.41857806    -0.08300
C2583       C  0.67613949  0.17010249  0.42991000     0.62100
H2584       H  0.64423465  0.17488830  0.36527051     0.12800
H2585       H  0.69290894  0.26945630  0.44647854     0.12800
C2586       C  0.64489858  0.26339808  0.40461039     0.62300
F2587       F  0.66152106  0.14743906  0.39960675    -0.22800
F2588       F  0.66174162  0.15807148  0.47002408    -0.20200
F2589       F  0.70564882  0.17664686  0.43105526    -0.19800
F2590       F  0.61363929  0.24813192  0.40708128    -0.19900
F2591       F  0.65483368  0.28075061  0.36640353    -0.20200
F2592       F  0.65529012  0.28258139  0.44035130    -0.22900
C2593       C  0.57546207  0.25063684  0.61311130    -0.05700
C2594       C  0.57862461  0.22704720  0.59652193     0.00200
C2595       C  0.57217279  0.21912322  0.55149410    -0.08400
C2596       C  0.55748763  0.23114494  0.52738115    -0.05700
C2597       C  0.54983420  0.25152447  0.54618253     0.00200
C2598       C  0.56340030  0.26465191  0.58731048    -0.08300
C2599       C  0.56927250  0.29495660  0.60278932     0.62100
H2600       H  0.58254036  0.25826525  0.64657364     0.12800
H2601       H  0.55134814  0.22387190  0.49359755     0.12800
C2602       C  0.57949628  0.19753289  0.52793140     0.62300
F2603       F  0.59786027  0.31102067  0.62039977    -0.22800
F2604       F  0.54842414  0.29135031  0.63535840    -0.20200
F2605       F  0.56858531  0.31181410  0.56792487    -0.19800
F2606       F  0.55310111  0.17047627  0.52196223    -0.19900
F2607       F  0.59958350  0.19243931  0.55101254    -0.20200
F2608       F  0.59259198  0.20931958  0.48685411    -0.22900
C2609       C  0.93224613  0.19667257  0.44890464    -0.05700
C2610       C  0.96375766  0.21015633  0.44314007     0.00200
C2611       C  0.97533531  0.19792064  0.41130913    -0.08400
C2612       C  0.95512620  0.17169586  0.38931874    -0.05700
C2613       C  0.92387757  0.15644778  0.39792488     0.00200
C2614       C  0.91190650  0.16980883  0.42684058    -0.08300
C2615       C  0.87816113  0.15558702  0.43550282     0.62100
H2616       H  0.92376456  0.20651155  0.47260723     0.12800
H2617       H  0.96418623  0.16201904  0.36615642     0.12800
C2618       C  0.50815439  0.20989374  0.39680363     0.62300
F2619       F  0.87175107  0.17033686  0.46839810    -0.22800
F2620       F  0.86596078  0.12598956  0.44865054    -0.20200
F2621       F  0.86432309  0.15682920  0.39737502    -0.19800
F2622       F  0.51691769  0.19000956  0.41119204    -0.19900
F2623       F  0.52727295  0.23767948  0.41432146    -0.20200
F2624       F  0.51195205  0.21288732  0.35119609    -0.22900
C2625       C  0.85719130  0.07428432  0.58465886    -0.05700
C2626       C  0.84712172  0.07719560  0.62674832     0.00200
C2627       C  0.81616984  0.06775817  0.63339379    -0.08400
C2628       C  0.79593936  0.05307005  0.59841754    -0.05700
C2629       C  0.80558078  0.04699009  0.55763819     0.00200
C2630       C  0.83740568  0.06078334  0.54941475    -0.08300
C2631       C  0.85211321  0.06308691  0.50427628     0.62100
H2632       H  0.88113518  0.08259133  0.57938423     0.12800
H2633       H  0.77225921  0.04525334  0.60367092     0.12800
C2634       C  0.80590602  0.07200478  0.34332959     0.62300
F2635       F  0.87794662  0.09100139  0.49917257    -0.22800
F2636       F  0.83333800  0.06002126  0.46991136    -0.20200
F2637       F  0.86054196  0.04156630  0.50111322    -0.19800
F2638       F  0.81764433  0.10210384  0.35221629    -0.19900
F2639       F  0.81427799  0.05919529  0.37628971    -0.20200
F2640       F  0.77467959  0.05819650  0.34442970    -0.22900
C2641       C  0.86904458  0.08689565  0.99779211     0.03200
C2642       C  0.88179128  0.11505825  0.68330022    -0.13000
C2643       C  0.90581060  0.12461695  0.71319362     0.00700
C2644       C  0.91785009  0.10569764  0.72099236    -0.11500
C2645       C  0.90715709  0.07862618  0.03241272     0.03200
C2646       C  0.88198268  0.06893068  0.00543327    -0.10900
H2647       H  0.87445104  0.13034527  0.67291242     0.08800
H2648       H  0.93734471  0.11345001  0.74188196     0.06300
H2649       H  0.87428685  0.04869927  0.98635794     0.06100
C2650       C  0.58405142  0.20914159  0.96244282     0.03200
C2651       C  0.61020278  0.22209586  0.98869276    -0.13000
C2652       C  0.61425302  0.20390972  0.68714480     0.00700
C2653       C  0.59202526  0.17348466  0.69110574    -0.11500
C2654       C  0.56783786  0.16070223  0.99674984     0.03200
C2655       C  0.56285737  0.17827269  0.96691395    -0.10900
H2656       H  0.62751600  0.24516806  0.98263450     0.08800
H2657       H  0.59413132  0.15929325  0.71564566     0.06300
H2658       H  0.54338284  0.16775457  0.94577385     0.06100
C2659       C  0.69302430  0.08455109  0.71369007     0.03200
C2660       C  0.70956634  0.11072519  0.68753239    -0.13000
C2661       C  0.69502336  0.12278292  0.99621464     0.00700
C2662       C  0.66324245  0.10824635  0.99963883    -0.11500
C2663       C  0.64590448  0.08198017  0.69306407     0.03200
C2664       C  0.66136513  0.07094690  0.71733560    -0.10900
H2665       H  0.73398039  0.12187955  0.68607838     0.08800
H2666       H  0.65135940  0.11605015  0.97915407     0.06300
H2667       H  0.64867605  0.05088882  0.73766615     0.06100
C2668       C  0.61194860  0.42499907  0.94982313     0.03200
C2669       C  0.59670843  0.44102791  0.95349822    -0.13000
C2670       C  0.56831984  0.42805907  0.97408131     0.00700
C2671       C  0.55603177  0.39980544  0.66092801    -0.11500
C2672       C  0.57262098  0.38500795  0.66163562     0.03200
C2673       C  0.60030757  0.39726352  0.97285216    -0.10900
H2674       H  0.60685782  0.46362339  0.94005898     0.08800
H2675       H  0.53478485  0.39042628  0.67938542     0.06300
H2676       H  0.61266110  0.38535640  0.97203496     0.06100
C2677       C  0.91786806  0.30614570  0.97595983     0.03200
C2678       C  0.92637174  0.33667079  0.97284275    -0.13000
C2679       C  0.91467099  0.34962689  0.00166594     0.00700
C2680       C  0.88881130  0.33092352  0.69339387    -0.11500
C2681       C  0.87981589  0.30042298  0.69887216     0.03200
C2682       C  0.89582802  0.28832403  0.00904298    -0.11100
H2683       H  0.94263140  0.35095085  0.94761067     0.08800
H2684       H  0.87849601  0.34077796  0.71362323     0.06300
H2685       H  0.88985184  0.26531407  0.01458307     0.06100
C2686       C  0.79303004  0.37790747  0.96769796     0.03200
C2687       C  0.77739248  0.38877730  0.99391457    -0.13000
C2688       C  0.79227451  0.41821486  0.67698554     0.00700
C2689       C  0.82333474  0.43526495  0.66951351    -0.11500
C2690       C  0.83956610  0.42576565  0.97606281     0.03200
C2691       C  0.82412388  0.39689525  0.95864771    -0.10900
H2692       H  0.75345943  0.37473113  0.00105983     0.08800
H2693       H  0.83619171  0.45640466  0.68649412     0.06300
H2694       H  0.83626315  0.38917953  0.93790648     0.06100
O2695       O  0.95759929  0.45806143  0.95978851    -0.88300
C2696       C  0.93953907  0.99683363  0.72828624     0.87700
Mg2697     Mg  0.99020987  0.44439697  0.96246928     1.58100
O2698       O  0.97650731  0.04575626  0.97285870    -0.88000
O2699       O  0.94351537  0.48446177  0.92058000    -0.75400
C2700       C  0.61238952  0.06458927  0.69070522     0.92800
O2701       O  0.95931750  0.44685966  0.73012783    -0.75200
O2702       O  0.59864621  0.03617070  0.69605492    -0.82700
Mg2703     Mg  0.92441380  0.44287856  0.67954605     1.58000
C2704       C  0.55112410  0.12794107  0.99558749     0.92700
O2705       O  0.88886228  0.43399694  0.96860929    -0.80900
H2706       H  0.97825293  0.05524153  0.90831919    -0.06300
C2707       C  0.53055462  0.04767188  0.73770671     0.87700
O2708       O  0.52501020  0.48582087  0.92114536    -0.75400
O2709       O  0.93715877  0.48895055  0.69079154    -0.88200
O2710       O  0.52303055  0.11359203  0.00542932    -0.81000
C2711       C  0.92630970  0.06429761  0.69418126     0.92800
C2712       C  0.87219325  0.44549364  0.97062520     0.92700
Mg2713     Mg  0.55503804  0.06751454  0.97935349     1.58000
O2714       O  0.59845271  0.07822619  0.67979407    -0.80900
O2715       O  0.51764657  0.06141344  0.93271909    -0.75200
O2716       O  0.91460085  0.03803860  0.67781223    -0.81000
O2717       O  0.90964615  0.39388876  0.67034963    -0.82700
O2718       O  0.56509244  0.47156395  0.98694958    -0.81100
C2719       C  0.99024511  0.05455898  0.93699953     0.87100
O2720       O  0.54372067  0.02174522  0.97258319    -0.88200
O2721       O  0.52487082  0.05426217  0.70120972    -0.88300
O2722       O  0.53818493  0.02792975  0.74182440    -0.75400
Mg2723     Mg  0.93064725  0.01075111  0.97022640     1.58000
O2724       O  0.95438395  0.07959460  0.70257693    -0.82700
H2725       H  0.95591683  0.45612183  0.89364468    -0.06500
O2726       O  0.50303547  0.46597673  0.69159712    -0.88000
H2727       H  0.50052036  0.45468431  0.75561427    -0.06300
H2728       H  0.55840666  0.02836187  0.90951496    -0.06500
C2729       C  0.98732894  0.45553629  0.72707877     0.87100
C2730       C  0.95241374  0.46555889  0.92356006     0.87700
C2731       C  0.54329060  0.01280612  0.93465115     0.87700
H2732       H  0.52810374  0.05834612  0.76700933    -0.06400
O2733       O  0.95797335  0.02358103  0.73967294    -0.75500
Mg2734     Mg  0.54892352  0.00003301  0.69364341     1.58000
H2735       H  0.92419962  0.48016218  0.75453892    -0.06500
C2736       C  0.92581673  0.38211890  0.66330632     0.92700
O2737       O  0.52360863  0.42941812  0.96737299    -0.82700
C2738       C  0.55155785  0.44406359  0.97559749     0.92800
O2739       O  0.88320138  0.47371782  0.97249736    -0.82700
Mg2740     Mg  0.49046468  0.06676928  0.70118066     1.58200
O2741       O  0.95399002  0.39799438  0.65471030    -0.81000
O2742       O  0.56635038  0.11509037  0.98814034    -0.82700
C2743       C  0.52758715  0.25779346  0.85361080     0.86500
C2744       C  0.00280298  0.22955709  0.82994497    -0.53700
C2745       C  0.98339584  0.23408992  0.80557242     0.09500
C2746       C  0.98856793  0.26638925  0.80984205     0.20400
C2747       C  0.54181925  0.28175725  0.81660690    -0.54400
C2748       C  0.52201600  0.28693213  0.79310770     0.09600
C2749       C  0.00892655  0.26683404  0.88262192    -0.54000
C2750       C  0.98889197  0.27199279  0.86054299     0.10100
H2751       H  0.00120698  0.20776226  0.83093267     0.14700
H2752       H  0.97158903  0.26975124  0.79314586     0.00400
H2753       H  0.56593704  0.29326204  0.80928955     0.15000
H2754       H  0.01036054  0.26810430  0.91831084     0.14800
C2755       C  0.76347159  0.48727330  0.80161515     0.86500
C2756       C  0.78881333  0.00789655  0.83297388    -0.53700
C2757       C  0.78304493  0.02625573  0.85931397     0.09500
C2758       C  0.75036474  0.02046400  0.85361689     0.20400
C2759       C  0.73525610  0.46920185  0.83126597    -0.54400
C2760       C  0.72894543  0.48600791  0.85945801     0.09600
C2761       C  0.75545469  0.00880278  0.77733802    -0.54000
C2762       C  0.74856058  0.02593713  0.80383256     0.10100
H2763       H  0.80957157  0.00728390  0.83412456     0.14700
H2764       H  0.74380745  0.03363901  0.87519443     0.00400
H2765       H  0.72024097  0.44515785  0.82843197     0.15000
H2766       H  0.75259060  0.00856162  0.74177951     0.14800
C2767       C  0.71636792  0.23444539  0.80546982     0.86500
C2768       C  0.71057524  0.21155017  0.84195162    -0.53700
C2769       C  0.73504669  0.21770530  0.86623624     0.09500
C2770       C  0.76389136  0.24768366  0.85287114     0.20400
C2771       C  0.72858709  0.26351831  0.83250206    -0.54400
C2772       C  0.75400838  0.27172039  0.85731465     0.09600
C2773       C  0.74403901  0.23876884  0.77844450    -0.54000
C2774       C  0.76891359  0.24542054  0.80261286     0.10100
H2775       H  0.68828170  0.19390802  0.85210079     0.14700
H2776       H  0.78359499  0.25128632  0.87132412     0.00400
H2777       H  0.71479118  0.27343071  0.83849599     0.15000
H2778       H  0.74422603  0.23807711  0.74254979     0.14800
C2779       C  0.76764473  0.42114491  0.74619134    -0.05700
C2780       C  0.77875284  0.43282732  0.70380285     0.00200
C2781       C  0.78596677  0.46270854  0.69382423    -0.08400
C2782       C  0.78270280  0.47984504  0.72711184    -0.05700
C2783       C  0.77097838  0.46822764  0.76984522     0.00200
C2784       C  0.76599735  0.43903239  0.78024992    -0.08300
C2785       C  0.76299418  0.42677613  0.82676840     0.62100
H2786       H  0.76394967  0.39902616  0.75431309     0.12800
H2787       H  0.79044929  0.50309693  0.71950646     0.12800
C2788       C  0.80106968  0.47865394  0.98320544     0.62300
F2789       F  0.78180103  0.41488766  0.83023420    -0.22800
F2790       F  0.73342872  0.40433343  0.83482459    -0.20200
F2791       F  0.77157568  0.44834780  0.85893781    -0.19800
F2792       F  0.79431359  0.45858906  0.94897945    -0.19900
F2793       F  0.83204534  0.49579379  0.98714711    -0.20200
F2794       F  0.79084648  0.49780703  0.97189502    -0.22900
C2795       C  0.78942496  0.32876585  0.95488323    -0.05700
C2796       C  0.77808688  0.34789007  0.94628023     0.00200
C2797       C  0.75928031  0.34188021  0.90985856    -0.08400
C2798       C  0.75593455  0.31961115  0.87996351    -0.05700
C2799       C  0.76557954  0.29868809  0.88878431     0.00200
C2800       C  0.78298688  0.30373902  0.92813024    -0.08300
C2801       C  0.79662794  0.28492882  0.94238197     0.62100
H2802       H  0.80448458  0.33450407  0.98253562     0.12800
H2803       H  0.74529102  0.31873089  0.84909979     0.12800
C2804       C  0.74194702  0.35823274  0.90323776     0.62300
F2805       F  0.81012327  0.29329749  0.98328932    -0.22800
F2806       F  0.81890978  0.28874893  0.91223846    -0.20200
F2807       F  0.77452644  0.25513204  0.94644544    -0.19800
F2808       F  0.76123535  0.38889527  0.90387140    -0.19900
F2809       F  0.72066208  0.35022656  0.93709041    -0.20200
F2810       F  0.72682590  0.35088493  0.86356368    -0.22900
C2811       C  0.82487754  0.27997617  0.79689767    -0.05700
C2812       C  0.79918124  0.25436773  0.78118917     0.00200
C2813       C  0.80290479  0.23995212  0.74339336    -0.08400
C2814       C  0.82993712  0.25497923  0.71782877    -0.05700
C2815       C  0.85484530  0.28196644  0.73180339     0.00200
C2816       C  0.85308695  0.29276843  0.77449167    -0.08300
C2817       C  0.88014881  0.31730158  0.79826365     0.62100
H2818       H  0.82299663  0.29057359  0.82672252     0.12800
H2819       H  0.83139339  0.24564807  0.68636146     0.12800
C2820       C  0.77971486  0.20842132  0.73000599     0.62300
F2821       F  0.88094130  0.30732881  0.84054148    -0.22800
F2822       F  0.87740441  0.34255953  0.80153260    -0.20200
F2823       F  0.90734497  0.32499428  0.77730351    -0.19800
F2824       F  0.76321140  0.20956335  0.69514682    -0.19900
F2825       F  0.76062353  0.19244912  0.76508437    -0.20200
F2826       F  0.79406354  0.19301000  0.71665104    -0.22900
C2827       C  0.93872665  0.26103324  0.89339377    -0.05700
C2828       C  0.96955515  0.28168659  0.88518738     0.00200
C2829       C  0.98235602  0.31028982  0.90489012    -0.08400
C2830       C  0.96533795  0.31566872  0.93668965    -0.05700
C2831       C  0.93436519  0.29527860  0.94567848     0.00200
C2832       C  0.92048986  0.26778743  0.92169038    -0.08300
C2833       C  0.88677100  0.24554531  0.92460749     0.62100
H2834       H  0.92897913  0.23931367  0.87771055     0.12800
H2835       H  0.97655336  0.33646427  0.95481251     0.12800
C2836       C  0.51328759  0.33536691  0.89202067     0.62300
F2837       F  0.87735697  0.22673801  0.88841011    -0.22800
F2838       F  0.87058211  0.26035999  0.92528310    -0.20200
F2839       F  0.88005148  0.22791376  0.96232204    -0.19800
F2840       F  0.51862165  0.36272102  0.90808291    -0.19900
F2841       F  0.51691632  0.33800950  0.84643619    -0.20200
F2842       F  0.53444996  0.32965743  0.90949564    -0.22900
C2843       C  0.53346679  0.33344170  0.68510948    -0.05700
C2844       C  0.56193260  0.35860525  0.69216734     0.00200
C2845       C  0.57676923  0.36035796  0.73203928    -0.08400
C2846       C  0.56195618  0.33728199  0.76411434    -0.05700
C2847       C  0.53357964  0.31124213  0.75709803     0.00200
C2848       C  0.51928991  0.30925240  0.71578106    -0.08300
C2849       C  0.98908461  0.28323510  0.70314962     0.62100
H2850       H  0.52214637  0.33309717  0.65497581     0.12800
H2851       H  0.57282756  0.33959460  0.79541334     0.12800
C2852       C  0.60808791  0.38669204  0.74097689     0.62300
F2853       F  0.98481177  0.28331513  0.65807146    -0.22800
F2854       F  0.96533814  0.28381739  0.72442522    -0.20200
F2855       F  0.98855336  0.25698450  0.71249371    -0.19800
F2856       F  0.60848601  0.41346225  0.73510625    -0.19900
F2857       F  0.62886812  0.38591687  0.71207075    -0.20200
F2858       F  0.61709167  0.38589583  0.78367928    -0.22900
C2859       C  0.66712368  0.44496201  0.94829448    -0.05700
C2860       C  0.64134079  0.43910072  0.92509980     0.00200
C2861       C  0.64442421  0.44856885  0.88008082    -0.08400
C2862       C  0.67363538  0.46509240  0.86081324    -0.05700
C2863       C  0.69952213  0.47174778  0.88448052     0.00200
C2864       C  0.69615320  0.46081210  0.92853134    -0.08300
C2865       C  0.72314390  0.46634127  0.95483174     0.62100
H2866       H  0.66436406  0.43760147  0.98255676     0.12800
H2867       H  0.67652910  0.47258942  0.82661176     0.12800
C2868       C  0.61714917  0.44013848  0.85157213     0.62300
F2869       F  0.74108292  0.49675883  0.96079904    -0.22800
F2870       F  0.73910892  0.45539504  0.93213930    -0.20200
F2871       F  0.71508986  0.45262660  0.99623772    -0.19800
F2872       F  0.60400822  0.45697172  0.86261234    -0.19900
F2873       F  0.59605551  0.40992923  0.85709964    -0.20200
F2874       F  0.62527642  0.44541877  0.80718137    -0.22900
C2875       C  0.70988733  0.02546706  0.75619214    -0.05700
C2876       C  0.73421604  0.04214988  0.78434438     0.00200
C2877       C  0.74648375  0.07363451  0.78710298    -0.08400
C2878       C  0.73235412  0.08683942  0.76380802    -0.05700
C2879       C  0.70829978  0.06997797  0.73514729     0.00200
C2880       C  0.69840862  0.03914408  0.72895213    -0.08300
C2881       C  0.67623377  0.02117877  0.02846455     0.62100
H2882       H  0.70117284  0.00154157  0.75294235     0.12800
H2883       H  0.74020896  0.11053770  0.76740655     0.12800
C2884       C  0.77514418  0.09337673  0.81224725     0.62300
F2885       F  0.68506354  0.00230649  0.00958505    -0.22800
F2886       F  0.67469023  0.03824411  0.99434776    -0.20200
F2887       F  0.64784997  0.00378730  0.04776108    -0.19800
F2888       F  0.79805347  0.08892142  0.79660403    -0.19900
F2889       F  0.77035936  0.08648544  0.85692218    -0.20200
F2890       F  0.78467217  0.12357117  0.80702286    -0.22900
C2891       C  0.70603933  0.17331155  0.97391952    -0.05700
C2892       C  0.71142648  0.14965574  0.96633965     0.00200
C2893       C  0.72819471  0.15063899  0.92776819    -0.08400
C2894       C  0.73845925  0.17533334  0.89804326    -0.05700
C2895       C  0.73136840  0.19806149  0.90476152     0.00200
C2896       C  0.71483327  0.19698872  0.94363971    -0.08300
C2897       C  0.70409654  0.21883199  0.95483201     0.62100
H2898       H  0.69326723  0.17254295  0.00281517     0.12800
H2899       H  0.75035564  0.17605098  0.86768998     0.12800
C2900       C  0.73355382  0.12501537  0.91628450     0.62300
F2901       F  0.71448505  0.23091021  0.99608811    -0.22800
F2902       F  0.67284655  0.20353428  0.95586746    -0.20200
F2903       F  0.71380302  0.24225475  0.92525320    -0.19800
F2904       F  0.70649661  0.09797498  0.91776039    -0.19900
F2905       F  0.75324075  0.12397448  0.94590861    -0.20200
F2906       F  0.74607379  0.12847740  0.87418329    -0.22900
C2907       C  0.65311750  0.19500493  0.71918948    -0.05700
C2908       C  0.64185737  0.21466528  0.71469509     0.00200
C2909       C  0.65424493  0.24062346  0.74117697    -0.08400
C2910       C  0.67898116  0.24689963  0.76804652    -0.05700
C2911       C  0.68871953  0.22592921  0.77567272     0.00200
C2912       C  0.67355107  0.19820798  0.75205523    -0.08300
C2913       C  0.67562589  0.17034534  0.76295493     0.62100
H2914       H  0.64369775  0.17534231  0.69849487     0.12800
H2915       H  0.69049436  0.26877305  0.78254438     0.12800
C2916       C  0.64136776  0.26148119  0.74275952     0.62300
F2917       F  0.66089925  0.14770681  0.73261334    -0.22800
F2918       F  0.66145465  0.15822711  0.80317094    -0.20200
F2919       F  0.70516056  0.17698392  0.76370423    -0.19800
F2920       F  0.61009486  0.24513570  0.74429564    -0.19900
F2921       F  0.65116426  0.28023106  0.70598335    -0.20200
F2922       F  0.65060674  0.27924674  0.78009744    -0.22900
C2923       C  0.57658934  0.25192001  0.94477093    -0.05700
C2924       C  0.57838621  0.22718758  0.92972338     0.00200
C2925       C  0.57146155  0.21842381  0.88502041    -0.08400
C2926       C  0.55731407  0.23068001  0.86009404    -0.05700
C2927       C  0.55081278  0.25218446  0.87766349     0.00200
C2928       C  0.56525398  0.26616002  0.91787230    -0.08300
C2929       C  0.57281966  0.29746153  0.93091102     0.62100
H2930       H  0.58430953  0.26036769  0.97771281     0.12800
H2931       H  0.55081205  0.22280862  0.82663629     0.12800
C2932       C  0.57798384  0.19596603  0.86241530     0.62300
F2933       F  0.60202452  0.31318782  0.94645608    -0.22800
F2934       F  0.55331318  0.29604269  0.96423797    -0.20200
F2935       F  0.57182079  0.31341244  0.89494713    -0.19800
F2936       F  0.55109388  0.16947767  0.85592801    -0.19900
F2937       F  0.59703442  0.18987286  0.88642852    -0.20200
F2938       F  0.59189343  0.20737682  0.82164833    -0.22900
C2939       C  0.93162529  0.19705505  0.77960318    -0.05700
C2940       C  0.96310959  0.21042848  0.77396335     0.00200
C2941       C  0.97467708  0.19806963  0.74233237    -0.08400
C2942       C  0.95452395  0.17141284  0.72122649    -0.05700
C2943       C  0.92327465  0.15622094  0.72988137     0.00200
C2944       C  0.91128258  0.17006920  0.75782886    -0.08300
C2945       C  0.87751643  0.15641042  0.76562364     0.62100
H2946       H  0.92316485  0.20712713  0.80292745     0.12800
H2947       H  0.96361050  0.16150542  0.69854584     0.12800
C2948       C  0.50807822  0.21016483  0.73078978     0.62300
F2949       F  0.87113822  0.17138008  0.79819786    -0.22800
F2950       F  0.86458802  0.12671145  0.77865070    -0.20200
F2951       F  0.86435167  0.15816588  0.72707870    -0.19800
F2952       F  0.51741193  0.19138576  0.74801564    -0.19900
F2953       F  0.52681226  0.23882176  0.74581961    -0.20200
F2954       F  0.51173271  0.21124136  0.68514529    -0.22900
C2955       C  0.85751812  0.07559272  0.91871666    -0.05700
C2956       C  0.84712662  0.07794548  0.96089740     0.00200
C2957       C  0.81615518  0.06865826  0.96701741    -0.08400
C2958       C  0.79625591  0.05457804  0.93146258    -0.05700
C2959       C  0.80615843  0.04876042  0.89072322     0.00200
C2960       C  0.83800738  0.06267298  0.88299842    -0.08300
C2961       C  0.85303120  0.06606062  0.83784467     0.62100
H2962       H  0.88149843  0.08400035  0.91365591     0.12800
H2963       H  0.77263082  0.04714613  0.93613772     0.12800
C2964       C  0.80448894  0.07220044  0.67759933     0.62300
F2965       F  0.87804858  0.09461357  0.83340186    -0.22800
F2966       F  0.83404882  0.06242050  0.80349529    -0.20200
F2967       F  0.86275344  0.04555587  0.83407753    -0.19800
F2968       F  0.81677754  0.10254787  0.68510136    -0.19900
F2969       F  0.81258874  0.05974607  0.71142313    -0.20200
F2970       F  0.77331240  0.05894552  0.67873167    -0.22900
C2971       C  0.87004292  0.58646193  0.32838637     0.03200
C2972       C  0.88242740  0.61543571  0.01831270    -0.13000
C2973       C  0.90628535  0.62475148  0.04852971     0.00700
C2974       C  0.91850833  0.60591449  0.05563511    -0.11500
C2975       C  0.90719896  0.57779412  0.36496824     0.03200
C2976       C  0.88241219  0.56817852  0.33724796    -0.10900
H2977       H  0.87486928  0.63068269  0.00862500     0.08800
H2978       H  0.93784840  0.61346550  0.07679521     0.06300
H2979       H  0.87456169  0.54769541  0.31870831     0.06100
C2980       C  0.58601881  0.70849864  0.29236929     0.03200
C2981       C  0.61193213  0.72131209  0.31907371    -0.13000
C2982       C  0.61477538  0.70483322  0.02035320     0.00700
C2983       C  0.59280207  0.67428502  0.02383947    -0.11500
C2984       C  0.56929970  0.66001619  0.32671570     0.03200
C2985       C  0.56474695  0.67765381  0.29648408    -0.10900
H2986       H  0.62931765  0.74435808  0.31317755     0.08800
H2987       H  0.59497858  0.66006321  0.04824269     0.06300
H2988       H  0.54534284  0.66726301  0.27520781     0.06100
C2989       C  0.69467307  0.58556498  0.04627766     0.03200
C2990       C  0.71122480  0.61187891  0.02039516    -0.13000
C2991       C  0.69557094  0.62235490  0.32935821     0.00700
C2992       C  0.66380100  0.60787486  0.33265621    -0.11500
C2993       C  0.64752078  0.58282517  0.02533178     0.03200
C2994       C  0.66298875  0.57180231  0.04959835    -0.10900
H2995       H  0.73564674  0.62310106  0.01904782     0.08800
H2996       H  0.65199603  0.61578258  0.31220302     0.06300
H2997       H  0.65028933  0.55163114  0.06969564     0.06100
C2998       C  0.61274600  0.92654808  0.28278668     0.03200
C2999       C  0.59712102  0.94214877  0.28758686    -0.13000
C3000       C  0.56886791  0.92862122  0.30874279     0.00700
C3001       C  0.55712778  0.90100724  0.99820306    -0.11500
C3002       C  0.57370975  0.88621491  0.99908965     0.03200
C3003       C  0.60159305  0.89860978  0.30496544    -0.10900
H3004       H  0.60689426  0.96486138  0.27481823     0.08800
H3005       H  0.53586577  0.89164827  0.01661919     0.06300
H3006       H  0.61421729  0.88699383  0.30320249     0.06100
C3007       C  0.91697375  0.80592094  0.31056373     0.03200
C3008       C  0.92528816  0.83639383  0.30695827    -0.13000
C3009       C  0.91389881  0.84949482  0.33604995     0.00700
C3010       C  0.89033891  0.83081688  0.03088331    -0.11500
C3011       C  0.88110311  0.80021567  0.03588262     0.03200
C3012       C  0.89527391  0.78832601  0.34406087    -0.11100
H3013       H  0.94133099  0.85056870  0.28143341     0.08800
H3014       H  0.88010028  0.84067168  0.05126651     0.06300
H3015       H  0.88951106  0.76543704  0.35010770     0.06100
C3016       C  0.79259176  0.87827742  0.30128545     0.03200
C3017       C  0.77678854  0.88928435  0.32685543    -0.13000
C3018       C  0.79276315  0.91868641  0.00957965     0.00700
C3019       C  0.82386812  0.93554218  0.00257966    -0.11500
C3020       C  0.83914774  0.92600695  0.31028069     0.03200
C3021       C  0.82378069  0.89713317  0.29290944    -0.10900
H3022       H  0.75279376  0.87529966  0.33359364     0.08800
H3023       H  0.83671485  0.95668594  0.01954164     0.06300
H3024       H  0.83607234  0.88929784  0.27275738     0.06100
O3025       O  0.95737303  0.95792984  0.29551022    -0.88300
C3026       C  0.94156102  0.49851943  0.06374220     0.87700
Mg3027     Mg  0.98990811  0.94411383  0.29805026     1.58100
O3028       O  0.97620585  0.54483968  0.30645374    -0.88000
O3029       O  0.94325404  0.98420296  0.25614646    -0.75400
C3030       C  0.61403326  0.56535127  0.02277821     0.92800
O3031       O  0.96072472  0.94769647  0.06549820    -0.75200
O3032       O  0.60039996  0.53694311  0.02811578    -0.82700
Mg3033     Mg  0.92538126  0.94296433  0.01526737     1.58000
C3034       C  0.55224588  0.62728348  0.32589272     0.92700
O3035       O  0.88832460  0.93373145  0.30470436    -0.80900
H3036       H  0.97757039  0.55395259  0.24183664    -0.06300
C3037       C  0.53257739  0.54867950  0.07066132     0.87700
O3038       O  0.52531904  0.98561202  0.25679467    -0.75400
O3039       O  0.93809714  0.98923681  0.02523623    -0.88200
O3040       O  0.52419546  0.61323704  0.33607383    -0.81000
C3041       C  0.92752564  0.56509101  0.02773280     0.92800
C3042       C  0.87185999  0.94548134  0.30582948     0.92700
Mg3043     Mg  0.55554936  0.56653691  0.31110989     1.58000
O3044       O  0.60000150  0.57891192  0.01192095    -0.80900
O3045       O  0.51781885  0.55996713  0.26479597    -0.75200
O3046       O  0.91581372  0.53867479  0.01190164    -0.81000
O3047       O  0.91076149  0.89375134  0.00748070    -0.82700
O3048       O  0.56478399  0.97140398  0.32372143    -0.81100
C3049       C  0.98973800  0.55346687  0.27042873     0.87100
O3050       O  0.54405450  0.52075887  0.30538658    -0.88200
O3051       O  0.52658963  0.55512684  0.03427274    -0.88300
O3052       O  0.54033244  0.52901141  0.07464911    -0.75400
Mg3053     Mg  0.93042862  0.50958178  0.30459440     1.58000
O3054       O  0.95567827  0.58064478  0.03554902    -0.82700
H3055       H  0.95559417  0.95577595  0.22939180    -0.06500
O3056       O  0.50321206  0.96651297  0.02737571    -0.88000
H3057       H  0.50070830  0.95581678  0.09165816    -0.06300
H3058       H  0.55833628  0.52684314  0.24215276    -0.06500
C3059       C  0.98869974  0.95634303  0.06191458     0.87100
C3060       C  0.95213535  0.96530427  0.25923988     0.87700
C3061       C  0.54328323  0.51152642  0.26756059     0.87700
H3062       H  0.53033704  0.55945056  0.10000363    -0.06400
O3063       O  0.96002922  0.52548187  0.07413047    -0.75500
Mg3064     Mg  0.55075620  0.50076561  0.02664722     1.58000
H3065       H  0.92558382  0.98116434  0.08920151    -0.06500
C3066       C  0.92699527  0.88204965  0.00026525     0.92700
O3067       O  0.52370734  0.92927002  0.30291633    -0.82700
C3068       C  0.55162818  0.94411471  0.31138572     0.92800
O3069       O  0.88304271  0.97372197  0.30758356    -0.82700
Mg3070     Mg  0.49207757  0.56761657  0.03447081     1.58200
O3071       O  0.95503803  0.89799882  0.99086352    -0.81000
O3072       O  0.56721581  0.61416731  0.31865640    -0.82700
C3073       C  0.52798442  0.75767389  0.18850479     0.86500
C3074       C  0.00329026  0.72997706  0.16680386    -0.53700
C3075       C  0.98366441  0.73413014  0.14234222     0.09500
C3076       C  0.98850183  0.76631518  0.14631769     0.20400
C3077       C  0.54217175  0.78193156  0.15197924    -0.54400
C3078       C  0.52236019  0.78725273  0.12888470     0.09600
C3079       C  0.00898708  0.76727991  0.21919411    -0.54000
C3080       C  0.98874574  0.77202965  0.19690029     0.10100
H3081       H  0.00201509  0.70832615  0.16792298     0.14700
H3082       H  0.97137282  0.76938540  0.12948959     0.00400
H3083       H  0.56631021  0.79363061  0.14475089     0.15000
H3084       H  0.01051808  0.76882774  0.25483314     0.14800
C3085       C  0.76352919  0.98769896  0.13366786     0.86500
C3086       C  0.78881083  0.50688637  0.16466423    -0.53700
C3087       C  0.78348907  0.52554227  0.19088464     0.09500
C3088       C  0.75083819  0.51997890  0.18583865     0.20400
C3089       C  0.73565599  0.96981875  0.16409357    -0.54400
C3090       C  0.72959889  0.98689117  0.19216018     0.09600
C3091       C  0.75496223  0.50756236  0.10967905    -0.54000
C3092       C  0.74852201  0.52508312  0.13607140     0.10100
H3093       H  0.80937519  0.50593002  0.16564772     0.14700
H3094       H  0.74460152  0.53334770  0.20749314     0.00400
H3095       H  0.72057178  0.94576413  0.16166971     0.15000
H3096       H  0.75198658  0.50713935  0.07412688     0.14800
C3097       C  0.71644893  0.73473913  0.13959917     0.86500
C3098       C  0.71060048  0.71166460  0.17589320    -0.53700
C3099       C  0.73504173  0.71776685  0.20027079     0.09500
C3100       C  0.76387637  0.74782844  0.18718489     0.20400
C3101       C  0.72853540  0.76365138  0.16691023    -0.54400
C3102       C  0.75396807  0.77184824  0.19165162     0.09600
C3103       C  0.74424514  0.73928279  0.11266867    -0.54000
C3104       C  0.76903438  0.74573678  0.13693014     0.10100
H3105       H  0.68830685  0.69387814  0.18577152     0.14700
H3106       H  0.78353432  0.75143214  0.20580035     0.00400
H3107       H  0.71474485  0.77358095  0.17296677     0.15000
H3108       H  0.74456403  0.73903001  0.07678057     0.14800
C3109       C  0.76787072  0.92164136  0.07840775    -0.05700
C3110       C  0.77922421  0.93339420  0.03612888     0.00200
C3111       C  0.78652678  0.96331172  0.02614512    -0.08400
C3112       C  0.78283241  0.98030023  0.05925326    -0.05700
C3113       C  0.77093664  0.96860424  0.10189367     0.00200
C3114       C  0.76612089  0.93949880  0.11240413    -0.08300
C3115       C  0.76345915  0.92747557  0.15900433     0.62100
H3116       H  0.76417069  0.89952676  0.08657389     0.12800
H3117       H  0.79042044  0.00351758  0.05166805     0.12800
C3118       C  0.80059390  0.97930483  0.31648007     0.62300
F3119       F  0.78210195  0.91537844  0.16220128    -0.22800
F3120       F  0.73390139  0.90525326  0.16772524    -0.20200
F3121       F  0.77254898  0.94929746  0.19088027    -0.19800
F3122       F  0.79350681  0.95928498  0.28210577    -0.19900
F3123       F  0.83159713  0.99606619  0.32029616    -0.20200
F3124       F  0.79079752  0.99885609  0.30550235    -0.22900
C3125       C  0.78901933  0.82907391  0.28900083    -0.05700
C3126       C  0.77780168  0.84825179  0.27985896     0.00200
C3127       C  0.75946028  0.84235860  0.24288501    -0.08400
C3128       C  0.75627029  0.82000975  0.21329135    -0.05700
C3129       C  0.76565894  0.79898065  0.22275860     0.00200
C3130       C  0.78286430  0.80408759  0.26231304    -0.08300
C3131       C  0.79668330  0.78545515  0.27670648     0.62100
H3132       H  0.80381210  0.83477554  0.31697987     0.12800
H3133       H  0.74589538  0.81907890  0.18213429     0.12800
C3134       C  0.74246361  0.85894565  0.23529836     0.62300
F3135       F  0.81021268  0.79400567  0.31756815    -0.22800
F3136       F  0.81897245  0.78931538  0.24655815    -0.20200
F3137       F  0.77475075  0.75560954  0.28088081    -0.19800
F3138       F  0.76194791  0.88957061  0.23605721    -0.19900
F3139       F  0.72078209  0.85110379  0.26851139    -0.20200
F3140       F  0.72787206  0.85170821  0.19518244    -0.22900
C3141       C  0.82510728  0.77980385  0.13232557    -0.05700
C3142       C  0.79937371  0.75460981  0.11579479     0.00200
C3143       C  0.80327940  0.74024044  0.07806584    -0.08400
C3144       C  0.83078532  0.75496327  0.05351196    -0.05700
C3145       C  0.85576356  0.78162202  0.06826308     0.00200
C3146       C  0.85360147  0.79225217  0.11088540    -0.08300
C3147       C  0.88051575  0.81630024  0.13550878     0.62100
H3148       H  0.82305678  0.79036164  0.16206243     0.12800
H3149       H  0.83248644  0.74583671  0.02199409     0.12800
C3150       C  0.77957823  0.70915385  0.06365323     0.62300
F3151       F  0.88037216  0.80600931  0.17794509    -0.22800
F3152       F  0.87839638  0.84192775  0.13840755    -0.20200
F3153       F  0.90785049  0.82347581  0.11549718    -0.19800
F3154       F  0.76231540  0.71132706  0.03084947    -0.19900
F3155       F  0.76133224  0.69249340  0.09907253    -0.20200
F3156       F  0.79322376  0.69380538  0.04700425    -0.22900
C3157       C  0.93851692  0.76045648  0.22988566    -0.05700
C3158       C  0.96914748  0.78150016  0.22110349     0.00200
C3159       C  0.98153987  0.81034707  0.23980690    -0.08400
C3160       C  0.96446877  0.81563396  0.27154196    -0.05700
C3161       C  0.93361648  0.79499001  0.28082536     0.00200
C3162       C  0.92004638  0.76712795  0.25774268    -0.08300
C3163       C  0.88645240  0.74440622  0.26111071     0.62100
H3164       H  0.92911864  0.73853431  0.21493423     0.12800
H3165       H  0.97550063  0.83663700  0.28916836     0.12800
C3166       C  0.51209671  0.83576682  0.22271804     0.62300
F3167       F  0.87730004  0.72481940  0.22582396    -0.22800
F3168       F  0.86976420  0.75869569  0.26050159    -0.20200
F3169       F  0.88008236  0.72759302  0.29962754    -0.19800
F3170       F  0.51756821  0.86311276  0.23902903    -0.19900
F3171       F  0.51337968  0.83778026  0.17697698    -0.20200
F3172       F  0.53458950  0.83099603  0.23719439    -0.22900
C3173       C  0.53449738  0.83452367  0.02171973    -0.05700
C3174       C  0.56282006  0.85971481  0.02944002     0.00200
C3175       C  0.57716972  0.86141171  0.06977141    -0.08400
C3176       C  0.56216108  0.83808541  0.10141836    -0.05700
C3177       C  0.53400025  0.81197176  0.09360161     0.00200
C3178       C  0.52004876  0.81022382  0.05211815    -0.08300
C3179       C  0.98894991  0.78337624  0.03987025     0.62100
H3180       H  0.52340797  0.83433010  0.99143081     0.12800
H3181       H  0.57272067  0.84020151  0.13295120     0.12800
C3182       C  0.60820769  0.88789743  0.07955316     0.62300
F3183       F  0.98458822  0.78318045  0.99477081    -0.22800
F3184       F  0.96544133  0.78445334  0.06108600    -0.20200
F3185       F  0.98808852  0.75702965  0.04975843    -0.19800
F3186       F  0.60849489  0.91454104  0.07288564    -0.19900
F3187       F  0.62953552  0.88724744  0.05169747    -0.20200
F3188       F  0.61648630  0.88725614  0.12276985    -0.22900
C3189       C  0.66780764  0.94646680  0.28106240    -0.05700
C3190       C  0.64213173  0.94116421  0.25809703     0.00200
C3191       C  0.64529994  0.95115360  0.21334428    -0.08400
C3192       C  0.67449677  0.96715994  0.19390982    -0.05700
C3193       C  0.70026095  0.97307293  0.21730093     0.00200
C3194       C  0.69681272  0.96210850  0.26132062    -0.08300
C3195       C  0.72370590  0.96760926  0.28778622     0.62100
H3196       H  0.66499097  0.93886959  0.31521242     0.12800
H3197       H  0.67747005  0.97489332  0.15983443     0.12800
C3198       C  0.61815975  0.94400284  0.18529814     0.62300
F3199       F  0.74109035  0.99796183  0.29501873    -0.22800
F3200       F  0.74023919  0.95751708  0.26460674    -0.20200
F3201       F  0.71549171  0.95308432  0.32861119    -0.19800
F3202       F  0.60625542  0.96180257  0.19714538    -0.19900
F3203       F  0.59614229  0.91406165  0.19049574    -0.20200
F3204       F  0.62614172  0.94938836  0.14087279    -0.22900
C3205       C  0.71082943  0.52576683  0.08739494    -0.05700
C3206       C  0.73470782  0.54184692  0.11654799     0.00200
C3207       C  0.74704421  0.57332015  0.12034843    -0.08400
C3208       C  0.73345323  0.58704670  0.09692572    -0.05700
C3209       C  0.70983660  0.57074675  0.06737017     0.00200
C3210       C  0.69994661  0.54002266  0.06019953    -0.08300
C3211       C  0.67679561  0.52135954  0.36010415     0.62100
H3212       H  0.70194037  0.50186043  0.08346312     0.12800
H3213       H  0.74127731  0.61067904  0.10133337     0.12800
C3214       C  0.77511509  0.59256106  0.14698997     0.62300
F3215       F  0.68186912  0.49883767  0.34544101    -0.22800
F3216       F  0.67995496  0.53906722  0.32361830    -0.20200
F3217       F  0.64751393  0.50810790  0.37675536    -0.19800
F3218       F  0.79801843  0.58747849  0.13345159    -0.19900
F3219       F  0.76894570  0.58575362  0.19154672    -0.20200
F3220       F  0.78545712  0.62289696  0.14127992    -0.22900
C3221       C  0.70709250  0.67322392  0.30812984    -0.05700
C3222       C  0.71197056  0.64932784  0.29970267     0.00200
C3223       C  0.72796357  0.65008440  0.26037237    -0.08400
C3224       C  0.73800626  0.67480501  0.23076629    -0.05700
C3225       C  0.73148190  0.69784428  0.23839889     0.00200
C3226       C  0.71568486  0.69697705  0.27801758    -0.08300
C3227       C  0.70548696  0.71910011  0.29009282     0.62100
H3228       H  0.69482503  0.67257879  0.33776052     0.12800
H3229       H  0.74933790  0.67535910  0.19988205     0.12800
C3230       C  0.73282369  0.62425065  0.24820159     0.62300
F3231       F  0.71642798  0.73101996  0.33123720    -0.22800
F3232       F  0.67426927  0.70413838  0.29182575    -0.20200
F3233       F  0.71510692  0.74260362  0.26069979    -0.19800
F3234       F  0.70564991  0.59734209  0.25037161    -0.19900
F3235       F  0.75285176  0.62306658  0.27699820    -0.20200
F3236       F  0.74464181  0.62753385  0.20564759    -0.22900
C3237       C  0.65369185  0.69595180  0.05239302    -0.05700
C3238       C  0.64237828  0.71559048  0.04805481     0.00200
C3239       C  0.65474945  0.74146475  0.07475113    -0.08400
C3240       C  0.67927371  0.74748415  0.10199331    -0.05700
C3241       C  0.68894245  0.72643778  0.10952974     0.00200
C3242       C  0.67398453  0.69894071  0.08536712    -0.08300
C3243       C  0.67629348  0.67112241  0.09557510     0.62100
H3244       H  0.64445005  0.67645433  0.03137425     0.12800
H3245       H  0.69075944  0.76928197  0.11677345     0.12800
C3246       C  0.64234167  0.76272182  0.07580780     0.62300
F3247       F  0.66159090  0.64866500  0.06494886    -0.22800
F3248       F  0.66228402  0.65867801  0.13574431    -0.20200
F3249       F  0.70590011  0.67795517  0.09595508    -0.19800
F3250       F  0.61106601  0.74685305  0.07622534    -0.19900
F3251       F  0.65302544  0.78171313  0.03930591    -0.20200
F3252       F  0.65120552  0.78020251  0.11345249    -0.22900
C3253       C  0.57808285  0.75115672  0.27728513    -0.05700
C3254       C  0.58015517  0.72691029  0.26071111     0.00200
C3255       C  0.57278672  0.71866449  0.21595777    -0.08400
C3256       C  0.55822930  0.73106987  0.19242291    -0.05700
C3257       C  0.55140638  0.75195462  0.21160951     0.00200
C3258       C  0.56599923  0.76537809  0.25198722    -0.08300
C3259       C  0.57263683  0.79598932  0.26723147     0.62100
H3260       H  0.58594810  0.75909248  0.31037513     0.12800
H3261       H  0.55149224  0.72366449  0.15884945     0.12800
C3262       C  0.57895792  0.69635783  0.19210133     0.62300
F3263       F  0.60194654  0.81213972  0.28228593    -0.22800
F3264       F  0.55312574  0.79300636  0.30158957    -0.20200
F3265       F  0.57064147  0.81243004  0.23284860    -0.19800
F3266       F  0.55202153  0.66971783  0.18671722    -0.19900
F3267       F  0.59879844  0.69057193  0.21453733    -0.20200
F3268       F  0.59172556  0.70772275  0.15074268    -0.22900
C3269       C  0.93182228  0.69649154  0.11696306    -0.05700
C3270       C  0.96333636  0.71019409  0.11101719     0.00200
C3271       C  0.97495165  0.69813363  0.07898011    -0.08400
C3272       C  0.95486451  0.67160351  0.05748931    -0.05700
C3273       C  0.92360245  0.65617802  0.06613235     0.00200
C3274       C  0.91153955  0.66962195  0.09479880    -0.08300
C3275       C  0.87775978  0.65574686  0.10275432     0.62100
H3276       H  0.92329221  0.70629457  0.14065118     0.12800
H3277       H  0.96403054  0.66201739  0.03435356     0.12800
C3278       C  0.50835401  0.71134606  0.06417405     0.62300
F3279       F  0.87130835  0.67033005  0.13587028    -0.22800
F3280       F  0.86495653  0.62595123  0.11512562    -0.20200
F3281       F  0.86451663  0.65776922  0.06446476    -0.19800
F3282       F  0.51802223  0.69233079  0.07927521    -0.19900
F3283       F  0.52709100  0.73962643  0.08045784    -0.20200
F3284       F  0.51160730  0.71353015  0.01846871    -0.22900
C3285       C  0.85837706  0.57495685  0.24941254    -0.05700
C3286       C  0.84808934  0.57726370  0.29167789     0.00200
C3287       C  0.81706485  0.56738492  0.29841804    -0.08400
C3288       C  0.79703401  0.55328482  0.26312276    -0.05700
C3289       C  0.80684032  0.54783331  0.22206715     0.00200
C3290       C  0.83868651  0.56171498  0.21395501    -0.08300
C3291       C  0.85346141  0.56427855  0.16879086     0.62100
H3292       H  0.88236007  0.58345189  0.24420399     0.12800
H3293       H  0.77334477  0.54538693  0.26832361     0.12800
C3294       C  0.80523025  0.57156267  0.01185082     0.62300
F3295       F  0.87916722  0.59231033  0.16385940    -0.22800
F3296       F  0.83461905  0.56111682  0.13447750    -0.20200
F3297       F  0.86211367  0.54293641  0.16539093    -0.19800
F3298       F  0.81715803  0.60166567  0.02091528    -0.19900
F3299       F  0.81342646  0.55854992  0.04472488    -0.20200
F3300       F  0.77402191  0.55795960  0.01287307    -0.22900
C3301       C  0.87008659  0.58788102  0.66161275     0.03200
C3302       C  0.88245956  0.61482253  0.34861917    -0.13000
C3303       C  0.90602831  0.62403392  0.37921032     0.00700
C3304       C  0.91757160  0.60480747  0.38771776    -0.11500
C3305       C  0.90716262  0.57902362  0.69814387     0.03200
C3306       C  0.88231529  0.56949510  0.67057133    -0.10900
H3307       H  0.87533953  0.63025909  0.33804849     0.08800
H3308       H  0.93672179  0.61230450  0.40925645     0.06300
H3309       H  0.87426799  0.54892532  0.65219042     0.06100
C3310       C  0.58518621  0.70842914  0.62685392     0.03200
C3311       C  0.61120009  0.72153033  0.65337914    -0.13000
C3312       C  0.61541903  0.70374712  0.35182336     0.00700
C3313       C  0.59309948  0.67335939  0.35590992    -0.11500
C3314       C  0.56878875  0.66021614  0.66179151     0.03200
C3315       C  0.56407538  0.67758216  0.63127635    -0.10900
H3316       H  0.62839399  0.74467521  0.64752377     0.08800
H3317       H  0.59498952  0.65924275  0.38082022     0.06300
H3318       H  0.54468610  0.66698086  0.60998121     0.06100
C3319       C  0.69419619  0.58551958  0.38172155     0.03200
C3320       C  0.71072193  0.61125670  0.35460082    -0.13000
C3321       C  0.69553563  0.62291243  0.66367096     0.00700
C3322       C  0.66372548  0.60798400  0.66650095    -0.11500
C3323       C  0.64713935  0.58285623  0.36084520     0.03200
C3324       C  0.66266593  0.57239557  0.38605103    -0.10900
H3325       H  0.73511280  0.62217424  0.35267540     0.08800
H3326       H  0.65184101  0.61577369  0.64599568     0.06300
H3327       H  0.65004998  0.55319453  0.40794763     0.06100
C3328       C  0.61087934  0.92531152  0.61567340     0.03200
C3329       C  0.59550478  0.94121312  0.61943898    -0.13000
C3330       C  0.56708211  0.92804895  0.63998526     0.00700
C3331       C  0.55753815  0.90067251  0.32983142    -0.11500
C3332       C  0.57446031  0.88621018  0.33028824     0.03200
C3333       C  0.59924457  0.89746260  0.63821157    -0.10900
H3334       H  0.60556573  0.96383613  0.60620860     0.08800
H3335       H  0.53630391  0.89103456  0.34837211     0.06300
H3336       H  0.61159582  0.88555260  0.63710287     0.06100
C3337       C  0.91551968  0.80521105  0.63786546     0.03200
C3338       C  0.92369580  0.83561029  0.63381374    -0.13000
C3339       C  0.91223986  0.84877842  0.66261370     0.00700
C3340       C  0.89054997  0.83129894  0.36564181    -0.11500
C3341       C  0.88133822  0.80075083  0.37095907     0.03200
C3342       C  0.89394161  0.78770674  0.67158528    -0.11100
H3343       H  0.93972045  0.84967803  0.60818826     0.08800
H3344       H  0.88018502  0.84120072  0.38563731     0.06300
H3345       H  0.88834855  0.76487764  0.67786840     0.06100
C3346       C  0.79170212  0.87807997  0.63406956     0.03200
C3347       C  0.77637333  0.88912574  0.66067429    -0.13000
C3348       C  0.79255043  0.91891565  0.34319774     0.00700
C3349       C  0.82372916  0.93581727  0.33700040    -0.11500
C3350       C  0.83834130  0.92600410  0.64090167     0.03200
C3351       C  0.82263550  0.89703746  0.62394848    -0.10900
H3352       H  0.75248727  0.87514041  0.66828381     0.08800
H3353       H  0.83635652  0.95691630  0.35415581     0.06300
H3354       H  0.83446254  0.88918322  0.60278661     0.06100
O3355       O  0.95625320  0.95777789  0.62301643    -0.88300
C3356       C  0.94010963  0.49677030  0.39815412     0.87700
Mg3357     Mg  0.98873062  0.94386285  0.62569610     1.58100
O3358       O  0.97571787  0.54565215  0.63948893    -0.88000
O3359       O  0.94263334  0.98491175  0.58468231    -0.75400
C3360       C  0.61368239  0.56522003  0.35860283     0.92800
O3361       O  0.96204248  0.94830665  0.40091511    -0.75200
O3362       O  0.60019881  0.53687012  0.36460465    -0.82700
Mg3363     Mg  0.92632834  0.94342831  0.35132214     1.58000
C3364       C  0.55203492  0.62750637  0.66102882     0.92700
O3365       O  0.88756081  0.93427067  0.63068465    -0.80900
H3366       H  0.97773148  0.55533376  0.57498978    -0.06300
C3367       C  0.53225691  0.54862803  0.40573628     0.87700
O3368       O  0.52410944  0.98600450  0.58730346    -0.75400
O3369       O  0.93917649  0.98977013  0.36087138    -0.88200
O3370       O  0.52396382  0.61327044  0.67101986    -0.81000
C3371       C  0.92601012  0.56336823  0.36165888     0.92800
C3372       C  0.87089763  0.94571275  0.63422489     0.92700
Mg3373     Mg  0.55558802  0.56705911  0.64466441     1.58000
O3374       O  0.59953927  0.57852303  0.34714063    -0.80900
O3375       O  0.51813832  0.56129818  0.59835222    -0.75200
O3376       O  0.91432791  0.53690716  0.34602159    -0.81000
O3377       O  0.91162682  0.89428305  0.34356658    -0.82700
O3378       O  0.56357527  0.97122746  0.65390659    -0.81100
C3379       C  0.98959286  0.55451731  0.60374414     0.87100
O3380       O  0.54401819  0.52133492  0.63744058    -0.88200
O3381       O  0.52631212  0.55470761  0.36904470    -0.88300
O3382       O  0.54003670  0.52902850  0.41046775    -0.75400
Mg3383     Mg  0.92984079  0.51089354  0.63633492     1.58000
O3384       O  0.95406857  0.57884163  0.37002581    -0.82700
H3385       H  0.95516001  0.95691480  0.55679363    -0.06500
O3386       O  0.50294806  0.96603932  0.35956031    -0.88000
H3387       H  0.49997054  0.95495978  0.42375277    -0.06300
H3388       H  0.55852882  0.52812598  0.57428532    -0.06500
C3389       C  0.98993872  0.95674997  0.39683216     0.87100
C3390       C  0.95144497  0.96590690  0.58702596     0.87700
C3391       C  0.54335490  0.51254118  0.59934781     0.87700
H3392       H  0.52993255  0.55965484  0.43470718    -0.06400
O3393       O  0.95836857  0.52371844  0.40887335    -0.75500
Mg3394     Mg  0.55064005  0.50047273  0.36336998     1.58000
H3395       H  0.92733044  0.98241419  0.42513223    -0.06500
C3396       C  0.92763754  0.88243594  0.33561631     0.92700
O3397       O  0.52235913  0.92934109  0.63284569    -0.82700
C3398       C  0.55021154  0.94391514  0.64172657     0.92800
O3399       O  0.88199917  0.97391502  0.63666295    -0.82700
Mg3400     Mg  0.49187294  0.56718581  0.36836363     1.58200
O3401       O  0.95562152  0.89821802  0.32584549    -0.81000
O3402       O  0.56720517  0.61460343  0.65365769    -0.82700
C3403       C  0.52748116  0.75739316  0.52076990     0.86500
C3404       C  0.00273461  0.72877702  0.49806401    -0.53700
C3405       C  0.98367314  0.73313673  0.47250412     0.09500
C3406       C  0.98859403  0.76534958  0.47596869     0.20400
C3407       C  0.54242628  0.78170594  0.48433759    -0.54400
C3408       C  0.52310793  0.78713553  0.46001938     0.09600
C3409       C  0.00743485  0.76597763  0.54992845    -0.54000
C3410       C  0.98779749  0.77093287  0.52640076     0.10100
H3411       H  0.00135387  0.70708392  0.49959061     0.14700
H3412       H  0.97187860  0.76855746  0.45818786     0.00400
H3413       H  0.56665394  0.79320939  0.47800126     0.15000
H3414       H  0.00803805  0.76730322  0.58562566     0.14800
C3415       C  0.76241832  0.98669338  0.46787003     0.86500
C3416       C  0.78856318  0.50635763  0.49906386    -0.53700
C3417       C  0.78310596  0.52504232  0.52506396     0.09500
C3418       C  0.75061793  0.51972261  0.51911494     0.20400
C3419       C  0.73408016  0.96852352  0.49722946    -0.54400
C3420       C  0.72776212  0.98530663  0.52547444     0.09600
C3421       C  0.75576212  0.50790529  0.44296904    -0.54000
C3422       C  0.74917568  0.52534531  0.46931910     0.10100
H3423       H  0.80916578  0.50546173  0.50039082     0.14700
H3424       H  0.74426780  0.53310124  0.54058965     0.00400
H3425       H  0.71905078  0.94449419  0.49420702     0.15000
H3426       H  0.75301983  0.50769500  0.40738792     0.14800
C3427       C  0.71615338  0.73434937  0.47283482     0.86500
C3428       C  0.71032861  0.71140521  0.50928515    -0.53700
C3429       C  0.73473463  0.71771433  0.53384571     0.09500
C3430       C  0.76347325  0.74779040  0.52078381     0.20400
C3431       C  0.72799314  0.76331172  0.49997306    -0.54400
C3432       C  0.75334492  0.77164193  0.52502329     0.09600
C3433       C  0.74404133  0.73902029  0.44615449    -0.54000
C3434       C  0.76877736  0.74566323  0.47060233     0.10100
H3435       H  0.68805316  0.69361786  0.51920187     0.14700
H3436       H  0.78310010  0.75147407  0.53952450     0.00400
H3437       H  0.71403528  0.77310227  0.50566229     0.15000
H3438       H  0.74447817  0.73883154  0.41028228     0.14800
C3439       C  0.76711644  0.92116601  0.41173584    -0.05700
C3440       C  0.77871508  0.93329469  0.36970200     0.00200
C3441       C  0.78610028  0.96327618  0.36021755    -0.08400
C3442       C  0.78232557  0.97999941  0.39361246    -0.05700
C3443       C  0.77013130  0.96792984  0.43597265     0.00200
C3444       C  0.76519396  0.93872625  0.44601116    -0.08300
C3445       C  0.76208825  0.92620635  0.49237701     0.62100
H3446       H  0.76336762  0.89898509  0.41953340     0.12800
H3447       H  0.79009565  0.00329460  0.38646627     0.12800
C3448       C  0.79980209  0.97869724  0.64952045     0.62300
F3449       F  0.78089195  0.91429698  0.49571697    -0.22800
F3450       F  0.73251450  0.90372610  0.50018653    -0.20200
F3451       F  0.77058548  0.94760363  0.52479059    -0.19800
F3452       F  0.79200703  0.95821308  0.61565114    -0.19900
F3453       F  0.83088221  0.99549478  0.65192423    -0.20200
F3454       F  0.78974161  0.99804333  0.63874240    -0.22900
C3455       C  0.78806777  0.82885213  0.62244751    -0.05700
C3456       C  0.77665352  0.84785658  0.61333708     0.00200
C3457       C  0.75812143  0.84174343  0.57657308    -0.08400
C3458       C  0.75507424  0.81948651  0.54692233    -0.05700
C3459       C  0.76474014  0.79866113  0.55627276     0.00200
C3460       C  0.78200385  0.80387944  0.59580876    -0.08300
C3461       C  0.79596569  0.78539237  0.61026402     0.62100
H3462       H  0.80300362  0.83473478  0.65028145     0.12800
H3463       H  0.74462955  0.81851222  0.51582220     0.12800
C3464       C  0.74070061  0.85793460  0.56940419     0.62300
F3465       F  0.80952261  0.79405385  0.65109079    -0.22800
F3466       F  0.81829929  0.78932975  0.58014063    -0.20200
F3467       F  0.77408601  0.75552110  0.61455198    -0.19800
F3468       F  0.75987051  0.88861981  0.56988834    -0.19900
F3469       F  0.71928620  0.84994037  0.60306260    -0.20200
F3470       F  0.72574714  0.85038257  0.52957889    -0.22900
C3471       C  0.82465878  0.78025898  0.46639160    -0.05700
C3472       C  0.79921017  0.75485655  0.44970959     0.00200
C3473       C  0.80346163  0.74062040  0.41210268    -0.08400
C3474       C  0.83114609  0.75546739  0.38808394    -0.05700
C3475       C  0.85586691  0.78222864  0.40305783     0.00200
C3476       C  0.85328331  0.79297724  0.44537155    -0.08300
C3477       C  0.87981114  0.81752935  0.47004589     0.62100
H3478       H  0.82225548  0.79081487  0.49587923     0.12800
H3479       H  0.83315751  0.74642049  0.35666656     0.12800
C3480       C  0.77985611  0.70966883  0.39700991     0.62300
F3481       F  0.87959936  0.80769075  0.51280683    -0.22800
F3482       F  0.87709899  0.84285294  0.47206948    -0.20200
F3483       F  0.90741936  0.82506840  0.45066372    -0.19800
F3484       F  0.76268192  0.71212975  0.36432964    -0.19900
F3485       F  0.76151096  0.69264375  0.43210616    -0.20200
F3486       F  0.79358364  0.69452200  0.37987595    -0.22900
C3487       C  0.93716911  0.75965780  0.55768426    -0.05700
C3488       C  0.96792670  0.78055883  0.54940970     0.00200
C3489       C  0.98023503  0.80947887  0.56778869    -0.08400
C3490       C  0.96314447  0.81483999  0.59937602    -0.05700
C3491       C  0.93223996  0.79427614  0.60837257     0.00200
C3492       C  0.91861578  0.76656797  0.58495933    -0.08300
C3493       C  0.88483028  0.74450448  0.58704113     0.62100
H3494       H  0.92771297  0.73773393  0.54272493     0.12800
H3495       H  0.97414226  0.83588780  0.61690800     0.12800
C3496       C  0.51215427  0.83579981  0.55307361     0.62300
F3497       F  0.87589019  0.72517036  0.55145727    -0.22800
F3498       F  0.86890063  0.75956157  0.58563718    -0.20200
F3499       F  0.87729919  0.72739072  0.62541741    -0.19800
F3500       F  0.51807868  0.86298960  0.57062648    -0.19900
F3501       F  0.51366032  0.83864333  0.50740639    -0.20200
F3502       F  0.53425541  0.83027567  0.56693222    -0.22900
C3503       C  0.53544189  0.83449835  0.35277878    -0.05700
C3504       C  0.56388534  0.85954373  0.36021902     0.00200
C3505       C  0.57862439  0.86090494  0.40003131    -0.08400
C3506       C  0.56371784  0.83750083  0.43164558    -0.05700
C3507       C  0.53524087  0.81164068  0.42426848     0.00200
C3508       C  0.52110984  0.81011076  0.38299736    -0.08300
C3509       C  0.99032536  0.78206471  0.36949771     0.62100
H3510       H  0.52409242  0.83450884  0.32288072     0.12800
H3511       H  0.57451987  0.83951194  0.46290913     0.12800
C3512       C  0.60988511  0.88718454  0.40942154     0.62300
F3513       F  0.98697544  0.78184931  0.32416159    -0.22800
F3514       F  0.96609532  0.78261560  0.38915783    -0.20200
F3515       F  0.98978657  0.75595990  0.37996662    -0.19800
F3516       F  0.61042885  0.91399445  0.40325888    -0.19900
F3517       F  0.63084993  0.88637520  0.38094621    -0.20200
F3518       F  0.61849152  0.88636292  0.45238435    -0.22900
C3519       C  0.66579402  0.94407853  0.61376150    -0.05700
C3520       C  0.64023024  0.93934185  0.59097799     0.00200
C3521       C  0.64349102  0.94954443  0.54634588    -0.08400
C3522       C  0.67269768  0.96563981  0.52705601    -0.05700
C3523       C  0.69836609  0.97117569  0.55036331     0.00200
C3524       C  0.69481025  0.95959867  0.59400416    -0.08300
C3525       C  0.72166632  0.96450393  0.62009230     0.62100
H3526       H  0.66292088  0.93623167  0.64777785     0.12800
H3527       H  0.67571603  0.97376671  0.49318169     0.12800
C3528       C  0.61646551  0.94279968  0.51830887     0.62300
F3529       F  0.73952937  0.99479818  0.62740821    -0.22800
F3530       F  0.73776998  0.95407449  0.59653775    -0.20200
F3531       F  0.71340602  0.94986027  0.66082342    -0.19800
F3532       F  0.60632057  0.96237001  0.52820058    -0.19900
F3533       F  0.59326055  0.91353183  0.52549323    -0.20200
F3534       F  0.62409102  0.94619664  0.47373727    -0.22900
C3535       C  0.71104025  0.52579055  0.42150890    -0.05700
C3536       C  0.73535471  0.54205463  0.44982453     0.00200
C3537       C  0.74767512  0.57350371  0.45361303    -0.08400
C3538       C  0.73355976  0.58708180  0.43121878    -0.05700
C3539       C  0.70914322  0.57054385  0.40301897     0.00200
C3540       C  0.69900234  0.53972349  0.39593898    -0.08300
C3541       C  0.67844173  0.52167597  0.69382007     0.62100
H3542       H  0.70218062  0.50187760  0.41792703     0.12800
H3543       H  0.74162552  0.61079015  0.43528406     0.12800
C3544       C  0.77635041  0.59284436  0.47896791     0.62300
F3545       F  0.68887474  0.50428076  0.67425251    -0.22800
F3546       F  0.67644260  0.53892774  0.66042401    -0.20200
F3547       F  0.64998085  0.50284287  0.71196636    -0.19800
F3548       F  0.79901021  0.58793217  0.46355492    -0.19900
F3549       F  0.77130868  0.58593433  0.52361943    -0.20200
F3550       F  0.78638844  0.62315112  0.47376251    -0.22900
C3551       C  0.70606038  0.67332023  0.64157652    -0.05700
C3552       C  0.71181794  0.64989843  0.63401432     0.00200
C3553       C  0.72861286  0.65103427  0.59536977    -0.08400
C3554       C  0.73868620  0.67571564  0.56571681    -0.05700
C3555       C  0.73116267  0.69813245  0.57234988     0.00200
C3556       C  0.71448876  0.69686910  0.61116638    -0.08300
C3557       C  0.70319009  0.71831220  0.62200344     0.62100
H3558       H  0.69316701  0.67237715  0.67061091     0.12800
H3559       H  0.75066680  0.67658250  0.53535625     0.12800
C3560       C  0.73398765  0.62545806  0.58358938     0.62300
F3561       F  0.71344064  0.73068520  0.66314849    -0.22800
F3562       F  0.67193738  0.70250800  0.62301551    -0.20200
F3563       F  0.71247947  0.74155430  0.59218545    -0.19800
F3564       F  0.70684182  0.59850234  0.58425792    -0.19900
F3565       F  0.75327822  0.62397232  0.61350398    -0.20200
F3566       F  0.74694771  0.62928289  0.54171869    -0.22900
C3567       C  0.65384084  0.69481499  0.38540597    -0.05700
C3568       C  0.64278625  0.71458048  0.37995693     0.00200
C3569       C  0.65504599  0.74069011  0.40614455    -0.08400
C3570       C  0.67932368  0.74684825  0.43395628    -0.05700
C3571       C  0.68879025  0.72577783  0.44248015     0.00200
C3572       C  0.67393641  0.69806478  0.41882807    -0.08300
C3573       C  0.67604821  0.67027648  0.43015041     0.62100
H3574       H  0.64456139  0.67506937  0.36488996     0.12800
H3575       H  0.69080864  0.76875462  0.44841311     0.12800
C3576       C  0.64243950  0.76179019  0.40647441     0.62300
F3577       F  0.66180665  0.64769122  0.39959481    -0.22800
F3578       F  0.66139269  0.65804107  0.47005196    -0.20200
F3579       F  0.70561437  0.67704863  0.43179704    -0.19800
F3580       F  0.61116911  0.74561480  0.40836289    -0.19900
F3581       F  0.65216091  0.77983066  0.36894971    -0.20200
F3582       F  0.65198525  0.78033441  0.44297551    -0.22900
C3583       C  0.57609271  0.75024632  0.61189900    -0.05700
C3584       C  0.57899285  0.72653928  0.59514050     0.00200
C3585       C  0.57209853  0.71847215  0.55023173    -0.08400
C3586       C  0.55771266  0.73089715  0.52630144    -0.05700
C3587       C  0.55031126  0.75142403  0.54530231     0.00200
C3588       C  0.56391274  0.76433534  0.58652173    -0.08300
C3589       C  0.56978016  0.79457801  0.60240128     0.62100
H3590       H  0.58333395  0.75781085  0.64533270     0.12800
H3591       H  0.55154921  0.72376617  0.49247632     0.12800
C3592       C  0.57858602  0.69634417  0.52646926     0.62300
F3593       F  0.59785951  0.81012011  0.62170323    -0.22800
F3594       F  0.54824589  0.79093421  0.63381040    -0.20200
F3595       F  0.57029963  0.81197768  0.56737709    -0.19800
F3596       F  0.55167477  0.66991388  0.51975436    -0.19900
F3597       F  0.59777398  0.68999846  0.54962029    -0.20200
F3598       F  0.59225089  0.70821714  0.48572740    -0.22900
C3599       C  0.93201547  0.69613147  0.44628786    -0.05700
C3600       C  0.96351176  0.70928541  0.44107074     0.00200
C3601       C  0.97511776  0.69688766  0.40959003    -0.08400
C3602       C  0.95491117  0.67050653  0.38790708    -0.05700
C3603       C  0.92361298  0.65553510  0.39612059     0.00200
C3604       C  0.91165044  0.66932926  0.42417646    -0.08300
C3605       C  0.87787264  0.65574931  0.43173650     0.62100
H3606       H  0.92353918  0.70624331  0.46951177     0.12800
H3607       H  0.96397400  0.66058671  0.36520260     0.12800
C3608       C  0.50896786  0.71080658  0.39612307     0.62300
F3609       F  0.87145553  0.67067250  0.46433871    -0.22800
F3610       F  0.86482380  0.62600416  0.44459651    -0.20200
F3611       F  0.86486169  0.65764351  0.39310926    -0.19800
F3612       F  0.51842435  0.69195530  0.41266686    -0.19900
F3613       F  0.52757621  0.73931302  0.41180043    -0.20200
F3614       F  0.51264450  0.71237886  0.35046726    -0.22900
C3615       C  0.85816059  0.57569235  0.58272718    -0.05700
C3616       C  0.84803604  0.57851831  0.62487068     0.00200
C3617       C  0.81699664  0.56863840  0.63157325    -0.08400
C3618       C  0.79682371  0.55389240  0.59659039    -0.05700
C3619       C  0.80649298  0.54780754  0.55587884     0.00200
C3620       C  0.83832647  0.56188376  0.54754498    -0.08300
C3621       C  0.85297121  0.56425366  0.50233684     0.62100
H3622       H  0.88214283  0.58424386  0.57737824     0.12800
H3623       H  0.77315591  0.54607674  0.60175893     0.12800
C3624       C  0.80506664  0.57055608  0.34316163     0.62300
F3625       F  0.87813527  0.59259198  0.49666436    -0.22800
F3626       F  0.83379993  0.56011331  0.46802204    -0.20200
F3627       F  0.86239588  0.54347245  0.49961354    -0.19800
F3628       F  0.81691599  0.60063348  0.35234330    -0.19900
F3629       F  0.81335416  0.55754753  0.37592422    -0.20200
F3630       F  0.77384891  0.55685144  0.34423049    -0.22900
C3631       C  0.87038978  0.58735389  0.99715884     0.03200
C3632       C  0.88264310  0.61627538  0.68192952    -0.13000
C3633       C  0.90628795  0.62541138  0.71247515     0.00700
C3634       C  0.91781143  0.60614401  0.72073202    -0.11500
C3635       C  0.90846943  0.57924533  0.03206473     0.03200
C3636       C  0.88341734  0.56950832  0.00487196    -0.10900
H3637       H  0.87554657  0.63178420  0.67159536     0.08800
H3638       H  0.93704446  0.61361969  0.74209364     0.06300
H3639       H  0.87583644  0.54928838  0.98577497     0.06100
C3640       C  0.58495397  0.70961605  0.96144014     0.03200
C3641       C  0.61082757  0.72256507  0.98833546    -0.13000
C3642       C  0.61495275  0.70415722  0.68616037     0.00700
C3643       C  0.59262807  0.67380872  0.69083642    -0.11500
C3644       C  0.56904097  0.66093113  0.99461810     0.03200
C3645       C  0.56403153  0.67863918  0.96512170    -0.10900
H3646       H  0.62790434  0.74582155  0.98309081     0.08800
H3647       H  0.59464977  0.65986894  0.71591643     0.06300
H3648       H  0.54471587  0.66816961  0.94367452     0.06100
C3649       C  0.69449835  0.58605455  0.71559036     0.03200
C3650       C  0.71085408  0.61218699  0.68924409    -0.13000
C3651       C  0.69609846  0.62307380  0.99536740     0.00700
C3652       C  0.66431019  0.60845931  0.99831192    -0.11500
C3653       C  0.64711153  0.58262996  0.69413200     0.03200
C3654       C  0.66278683  0.57216801  0.71909105    -0.10900
H3655       H  0.73528313  0.62363690  0.68799727     0.08800
H3656       H  0.65258335  0.61664931  0.97824250     0.06300
H3657       H  0.65021639  0.55222840  0.73968517     0.06100
C3658       C  0.61235965  0.92608946  0.95139211     0.03200
C3659       C  0.59708458  0.94206128  0.95579587    -0.13000
C3660       C  0.56882853  0.92893030  0.97686770     0.00700
C3661       C  0.55531073  0.90020892  0.66160731    -0.11500
C3662       C  0.57197587  0.88551340  0.66306550     0.03200
C3663       C  0.60091043  0.89824690  0.97397606    -0.10900
H3664       H  0.60708070  0.96469770  0.94258103     0.08800
H3665       H  0.53397584  0.89088519  0.67981652     0.06300
H3666       H  0.61333400  0.88641465  0.97265962     0.06100
C3667       C  0.91663614  0.80562672  0.97506033     0.03200
C3668       C  0.92482575  0.83607998  0.97166773    -0.13000
C3669       C  0.91345910  0.84909261  0.00096357     0.00700
C3670       C  0.88909486  0.83069819  0.69263427    -0.11500
C3671       C  0.88007443  0.80021585  0.69849765     0.03200
C3672       C  0.89496479  0.78788296  0.00856857    -0.11100
H3673       H  0.94072577  0.85032070  0.94605100     0.08800
H3674       H  0.87879900  0.84067177  0.71261772     0.06300
H3675       H  0.88915107  0.76493788  0.01425405     0.06100
C3676       C  0.79238679  0.87783093  0.96755507     0.03200
C3677       C  0.77682810  0.88893856  0.99357543    -0.13000
C3678       C  0.79248262  0.91880508  0.67683055     0.00700
C3679       C  0.82354283  0.93573004  0.66914116    -0.11500
C3680       C  0.83892411  0.92574055  0.97505424     0.03200
C3681       C  0.82341422  0.89676757  0.95810943    -0.10900
H3682       H  0.75289602  0.87496681  0.00082427     0.08800
H3683       H  0.83652729  0.95691379  0.68595808     0.06300
H3684       H  0.83546424  0.88892313  0.93741867     0.06100
O3685       O  0.95686175  0.95779789  0.96009257    -0.88300
C3686       C  0.93850077  0.49665670  0.72975950     0.87700
Mg3687     Mg  0.98941393  0.94412314  0.96324922     1.58100
O3688       O  0.97728113  0.54609117  0.97139050    -0.88000
O3689       O  0.94336266  0.98460005  0.92070968    -0.75400
C3690       C  0.61361222  0.56491378  0.69154843     0.92800
O3691       O  0.95973621  0.94637555  0.72824989    -0.75200
O3692       O  0.60007899  0.53647575  0.69668466    -0.82700
Mg3693     Mg  0.92471042  0.94262289  0.67822099     1.58000
C3694       C  0.55234699  0.62818403  0.99309754     0.92700
O3695       O  0.88813506  0.93379262  0.96751544    -0.80900
H3696       H  0.97843574  0.55473862  0.90663035    -0.06300
C3697       C  0.53194473  0.54799649  0.73880980     0.87700
O3698       O  0.52489910  0.98586935  0.92439933    -0.75400
O3699       O  0.93789990  0.98891842  0.68937578    -0.88200
O3700       O  0.52426567  0.61386450  0.00300417    -0.81000
C3701       C  0.92565721  0.56425001  0.69486173     0.92800
C3702       C  0.87152275  0.94535947  0.96936050     0.92700
Mg3703     Mg  0.55590388  0.56758860  0.97632385     1.58000
O3704       O  0.59948218  0.57837138  0.68071728    -0.80900
O3705       O  0.51819645  0.56165912  0.93038280    -0.75200
O3706       O  0.91388844  0.53805140  0.67827893    -0.81000
O3707       O  0.90978041  0.89351101  0.66919189    -0.82700
O3708       O  0.56506741  0.97205052  0.99084988    -0.81100
C3709       C  0.99069012  0.55440211  0.93520964     0.87100
O3710       O  0.54428298  0.52172085  0.96928061    -0.88200
O3711       O  0.52604369  0.55447748  0.70238025    -0.88300
O3712       O  0.53972135  0.52834448  0.74282691    -0.75400
Mg3713     Mg  0.93135471  0.51097225  0.97025659     1.58000
O3714       O  0.95358788  0.57921979  0.70412759    -0.82700
H3715       H  0.95593842  0.95636491  0.89389222    -0.06500
O3716       O  0.50176539  0.96589243  0.68986259    -0.88000
H3717       H  0.49886856  0.95405691  0.75369799    -0.06300
H3718       H  0.55865907  0.52821580  0.90605920    -0.06500
C3719       C  0.98768896  0.95497533  0.72459610     0.87100
C3720       C  0.95212128  0.96559674  0.92378794     0.87700
C3721       C  0.54359262  0.51273124  0.93130385     0.87700
H3722       H  0.52962749  0.55873017  0.76814110    -0.06400
O3723       O  0.95698321  0.52328002  0.74154380    -0.75500
Mg3724     Mg  0.55024709  0.50020003  0.69470290     1.58000
H3725       H  0.92547901  0.98044833  0.75334468    -0.06500
C3726       C  0.92591515  0.88172618  0.66179008     0.92700
O3727       O  0.52388515  0.92983149  0.97068468    -0.82700
C3728       C  0.55181238  0.94466049  0.97898175     0.92800
O3729       O  0.88257048  0.97358743  0.97112299    -0.82700
Mg3730     Mg  0.49154082  0.56696820  0.70217674     1.58200
O3731       O  0.95399024  0.89758833  0.65248310    -0.81000
O3732       O  0.56753674  0.61530764  0.98545520    -0.82700
C3733       C  0.52755170  0.75787061  0.85370309     0.86500
C3734       C  0.00361248  0.73059171  0.83041038    -0.53700
C3735       C  0.98407524  0.73480195  0.80579827     0.09500
C3736       C  0.98884826  0.76695121  0.80993296     0.20400
C3737       C  0.54164907  0.78207989  0.81701474    -0.54400
C3738       C  0.52167612  0.78702330  0.79356947     0.09600
C3739       C  0.00899541  0.76769737  0.88302469    -0.54000
C3740       C  0.98882115  0.77246582  0.86061033     0.10100
H3741       H  0.00234296  0.70894342  0.83149771     0.14700
H3742       H  0.97179559  0.77006808  0.79296231     0.00400
H3743       H  0.56580223  0.79397332  0.80988541     0.15000
H3744       H  0.01033090  0.76913212  0.91871839     0.14800
C3745       C  0.76334982  0.98750458  0.80175976     0.86500
C3746       C  0.78883904  0.50703599  0.83335953    -0.53700
C3747       C  0.78339973  0.52555302  0.85983337     0.09500
C3748       C  0.75093782  0.52036751  0.85391886     0.20400
C3749       C  0.73540882  0.96930875  0.83199787    -0.54400
C3750       C  0.72893399  0.98612984  0.85997272     0.09600
C3751       C  0.75631797  0.50922964  0.77745960    -0.54000
C3752       C  0.74965804  0.52644145  0.80421290     0.10100
H3753       H  0.80930508  0.50592216  0.83465049     0.14700
H3754       H  0.74461668  0.53365390  0.87567975     0.00400
H3755       H  0.72067375  0.94518694  0.82966262     0.15000
H3756       H  0.75362814  0.50932567  0.74189674     0.14800
C3757       C  0.71659086  0.73466494  0.80516403     0.86500
C3758       C  0.71084679  0.71180707  0.84170925    -0.53700
C3759       C  0.73537070  0.71801725  0.86590013     0.09500
C3760       C  0.76416298  0.74798922  0.85244344     0.20400
C3761       C  0.72876959  0.76373630  0.83213184    -0.54400
C3762       C  0.75421549  0.77197470  0.85691887     0.09600
C3763       C  0.74420814  0.73900114  0.77808213    -0.54000
C3764       C  0.76909672  0.74566697  0.80216128     0.10100
H3765       H  0.68859855  0.69409881  0.85187107     0.14700
H3766       H  0.78392082  0.75166021  0.87083151     0.00400
H3767       H  0.71492440  0.77364263  0.83797853     0.15000
H3768       H  0.74435151  0.73842168  0.74218560     0.14800
C3769       C  0.76817157  0.92177371  0.74630378    -0.05700
C3770       C  0.77911508  0.93344862  0.70387137     0.00200
C3771       C  0.78622086  0.96328460  0.69393296    -0.08400
C3772       C  0.78285977  0.98035453  0.72725985    -0.05700
C3773       C  0.77118449  0.96868511  0.77000739     0.00200
C3774       C  0.76653131  0.93963553  0.78038652    -0.08300
C3775       C  0.76403944  0.92759062  0.82686011     0.62100
H3776       H  0.76465614  0.89972117  0.75444632     0.12800
H3777       H  0.79037732  0.00355804  0.71965927     0.12800
C3778       C  0.80080923  0.97896909  0.98209700     0.62300
F3779       F  0.78356936  0.91652976  0.83010599    -0.22800
F3780       F  0.73474057  0.90460608  0.83501680    -0.20200
F3781       F  0.77214351  0.94910690  0.85901565    -0.19800
F3782       F  0.79331225  0.95865028  0.94806119    -0.19900
F3783       F  0.83184937  0.99549955  0.98541884    -0.20200
F3784       F  0.79121784  0.99865837  0.97091260    -0.22900
C3785       C  0.78881442  0.82863066  0.95509507    -0.05700
C3786       C  0.77746839  0.84774372  0.94627636     0.00200
C3787       C  0.75917111  0.84195254  0.90929567    -0.08400
C3788       C  0.75611184  0.81980815  0.87939074    -0.05700
C3789       C  0.76569268  0.79888817  0.88843663     0.00200
C3790       C  0.78289712  0.80388158  0.92798109    -0.08300
C3791       C  0.79702523  0.78543283  0.94185981     0.62100
H3792       H  0.80361281  0.83427588  0.98305617     0.12800
H3793       H  0.74578146  0.81902493  0.84825589     0.12800
C3794       C  0.74224702  0.85860699  0.90190834     0.62300
F3795       F  0.81075132  0.79396426  0.98258830    -0.22800
F3796       F  0.81924020  0.78955696  0.91136446    -0.20200
F3797       F  0.77526470  0.75552434  0.94600943    -0.19800
F3798       F  0.76186491  0.88920089  0.90248341    -0.19900
F3799       F  0.72076113  0.85095302  0.93536006    -0.20200
F3800       F  0.72745570  0.85130338  0.86195805    -0.22900
C3801       C  0.82493669  0.78036641  0.79614200    -0.05700
C3802       C  0.79930942  0.75462748  0.78062702     0.00200
C3803       C  0.80304736  0.74004160  0.74304589    -0.08400
C3804       C  0.83021568  0.75485437  0.71774551    -0.05700
C3805       C  0.85509377  0.78193275  0.73154255     0.00200
C3806       C  0.85318222  0.79306845  0.77390156    -0.08300
C3807       C  0.88009593  0.81800255  0.79738541     0.62100
H3808       H  0.82295560  0.79115231  0.82568610     0.12800
H3809       H  0.83172513  0.74541249  0.68641555     0.12800
C3810       C  0.77948844  0.70872334  0.72928531     0.62300
F3811       F  0.88047635  0.80891901  0.84042933    -0.22800
F3812       F  0.87751782  0.84341646  0.79864253    -0.20200
F3813       F  0.90738565  0.82507202  0.77732548    -0.19800
F3814       F  0.76256065  0.71041863  0.69551103    -0.19900
F3815       F  0.76084994  0.69249206  0.76462634    -0.20200
F3816       F  0.79336390  0.69322157  0.71420762    -0.22900
C3817       C  0.93847251  0.76053727  0.89384737    -0.05700
C3818       C  0.96905097  0.78173612  0.88490623     0.00200
C3819       C  0.98130039  0.81053004  0.90375402    -0.08400
C3820       C  0.96413266  0.81570358  0.93547556    -0.05700
C3821       C  0.93334195  0.79489637  0.94496087     0.00200
C3822       C  0.91992871  0.76701942  0.92191252    -0.08300
C3823       C  0.88645350  0.74396992  0.92573650     0.62100
H3824       H  0.92917631  0.73861379  0.87893095     0.12800
H3825       H  0.97512948  0.83668715  0.95316028     0.12800
C3826       C  0.51231577  0.83538305  0.88943795     0.62300
F3827       F  0.87720999  0.72468882  0.89007889    -0.22800
F3828       F  0.86937860  0.75785923  0.92629374    -0.20200
F3829       F  0.88069599  0.72692559  0.96388378    -0.19800
F3830       F  0.51767268  0.86281730  0.90519067    -0.19900
F3831       F  0.51453841  0.83738454  0.84370983    -0.20200
F3832       F  0.53430882  0.83038302  0.90546410    -0.22900
C3833       C  0.53321509  0.83371475  0.68586929    -0.05700
C3834       C  0.56122324  0.85923681  0.69374620     0.00200
C3835       C  0.57557972  0.86130338  0.73419274    -0.08400
C3836       C  0.56092525  0.83791928  0.76580260    -0.05700
C3837       C  0.53303664  0.81152242  0.75797089     0.00200
C3838       C  0.51904398  0.80943880  0.71634856    -0.08300
C3839       C  0.98994816  0.78378464  0.70296769     0.62100
H3840       H  0.52220302  0.83321203  0.65533768     0.12800
H3841       H  0.57145384  0.84029561  0.79743546     0.12800
C3842       C  0.60605753  0.88847157  0.74434512     0.62300
F3843       F  0.98575401  0.78373176  0.65783899    -0.22800
F3844       F  0.96616064  0.78442787  0.72399177    -0.20200
F3845       F  0.98940102  0.75757685  0.71267171    -0.19800
F3846       F  0.60479466  0.91442553  0.73904842    -0.19900
F3847       F  0.62792345  0.88945679  0.71584953    -0.20200
F3848       F  0.61475891  0.88757451  0.78720065    -0.22900
C3849       C  0.66744213  0.94601016  0.94954214    -0.05700
C3850       C  0.64164831  0.94024617  0.92650145     0.00200
C3851       C  0.64460149  0.94952036  0.88142645    -0.08400
C3852       C  0.67372008  0.96549509  0.86176025    -0.05700
C3853       C  0.69961837  0.97197514  0.88521295     0.00200
C3854       C  0.69638626  0.96153180  0.92953789    -0.08300
C3855       C  0.72338985  0.96723431  0.95591318     0.62100
H3856       H  0.66475365  0.93884449  0.98389681     0.12800
H3857       H  0.67654743  0.97279691  0.82746873     0.12800
C3858       C  0.61728512  0.94154141  0.85331918     0.62300
F3859       F  0.74124188  0.99768028  0.96175897    -0.22800
F3860       F  0.73938281  0.95628641  0.93334062    -0.20200
F3861       F  0.71536954  0.95361525  0.99739387    -0.19800
F3862       F  0.60448960  0.95857461  0.86501358    -0.19900
F3863       F  0.59597123  0.91138015  0.85862359    -0.20200
F3864       F  0.62526962  0.94706408  0.80891352    -0.22900
C3865       C  0.71116337  0.52662119  0.75702169    -0.05700
C3866       C  0.73564598  0.54305255  0.78497903     0.00200
C3867       C  0.74824689  0.57458509  0.78787723    -0.08400
C3868       C  0.73422065  0.58809141  0.76498035    -0.05700
C3869       C  0.70988158  0.57141090  0.73663598     0.00200
C3870       C  0.69975945  0.54054663  0.73018316    -0.08300
C3871       C  0.67949040  0.52172453  0.02270123     0.62100
H3872       H  0.70219801  0.50266061  0.75367281     0.12800
H3873       H  0.74233161  0.61183172  0.76871158     0.12800
C3874       C  0.77707041  0.59399493  0.81287868     0.62300
F3875       F  0.69062230  0.50494948  0.00306045    -0.22800
F3876       F  0.67794110  0.53947868  0.98968124    -0.20200
F3877       F  0.65073686  0.50234821  0.03943608    -0.19800
F3878       F  0.79969641  0.58920064  0.79692181    -0.19900
F3879       F  0.77234385  0.58698664  0.85753141    -0.20200
F3880       F  0.78696287  0.62428479  0.80786883    -0.22900
C3881       C  0.70750994  0.67388764  0.97403062    -0.05700
C3882       C  0.71255983  0.65007896  0.96585041     0.00200
C3883       C  0.72869377  0.65083405  0.92666901    -0.08400
C3884       C  0.73869925  0.67546892  0.89695795    -0.05700
C3885       C  0.73188426  0.69832849  0.90423387     0.00200
C3886       C  0.71591429  0.69746204  0.94367342    -0.08300
C3887       C  0.70539944  0.71940887  0.95535981     0.62100
H3888       H  0.69514679  0.67323862  0.00357829     0.12800
H3889       H  0.75015582  0.67603677  0.86618673     0.12800
C3890       C  0.73365739  0.62503121  0.91467642     0.62300
F3891       F  0.71684980  0.73210329  0.99594416    -0.22800
F3892       F  0.67418515  0.70405315  0.95816195    -0.20200
F3893       F  0.71418959  0.74235579  0.92515490    -0.19800
F3894       F  0.70647718  0.59811972  0.91652749    -0.19900
F3895       F  0.75350787  0.62379769  0.94377502    -0.20200
F3896       F  0.74574934  0.62838079  0.87229226    -0.22900
C3897       C  0.65349551  0.69512809  0.71889065    -0.05700
C3898       C  0.64262139  0.71505188  0.71360918     0.00200
C3899       C  0.65549373  0.74144137  0.73920211    -0.08400
C3900       C  0.67997536  0.74753379  0.76652196    -0.05700
C3901       C  0.68907314  0.72619800  0.77522497     0.00200
C3902       C  0.67376614  0.69834603  0.75198295    -0.08300
C3903       C  0.67549370  0.67037412  0.76351632     0.62100
H3904       H  0.64390203  0.67527048  0.69859395     0.12800
H3905       H  0.69192482  0.76960613  0.78043368     0.12800
C3906       C  0.64371727  0.76321249  0.73898225     0.62300
F3907       F  0.66098195  0.64771265  0.73314281    -0.22800
F3908       F  0.66082131  0.65840798  0.80350642    -0.20200
F3909       F  0.70494542  0.67678085  0.76512093    -0.19800
F3910       F  0.61244350  0.74786996  0.73925442    -0.19900
F3911       F  0.65483200  0.78169606  0.70196234    -0.20200
F3912       F  0.65278966  0.78118390  0.77611444    -0.22900
C3913       C  0.57681467  0.75210190  0.94469243    -0.05700
C3914       C  0.57912976  0.72776763  0.92907902     0.00200
C3915       C  0.57235531  0.71934048  0.88420465    -0.08400
C3916       C  0.55801015  0.73152905  0.85960832    -0.05700
C3917       C  0.55097206  0.75251504  0.87769948     0.00200
C3918       C  0.56511812  0.76621511  0.91822456    -0.08300
C3919       C  0.57211873  0.79723902  0.93193176     0.62100
H3920       H  0.58433564  0.76029082  0.97780050     0.12800
H3921       H  0.55169519  0.72393367  0.82598901     0.12800
C3922       C  0.57917184  0.69728516  0.86094494     0.62300
F3923       F  0.60103959  0.81306486  0.94848314    -0.22800
F3924       F  0.55201643  0.79521109  0.96471143    -0.20200
F3925       F  0.57145682  0.81347327  0.89611116    -0.19800
F3926       F  0.55235426  0.67098200  0.85318530    -0.19900
F3927       F  0.59781898  0.69064357  0.88496812    -0.20200
F3928       F  0.59364997  0.70945931  0.82073869    -0.22900
C3929       C  0.93222930  0.69715086  0.78069707    -0.05700
C3930       C  0.96372170  0.71088796  0.77446178     0.00200
C3931       C  0.97526662  0.69871340  0.74246700    -0.08400
C3932       C  0.95508433  0.67216860  0.72100703    -0.05700
C3933       C  0.92383940  0.65684253  0.72981144     0.00200
C3934       C  0.91191033  0.67015649  0.75889649    -0.08300
C3935       C  0.87820339  0.65564789  0.76815491     0.62100
H3936       H  0.92376233  0.70690053  0.80458076     0.12800
H3937       H  0.96413453  0.66243266  0.69794502     0.12800
C3938       C  0.50852585  0.71138602  0.72831115     0.62300
F3939       F  0.87185516  0.67020254  0.80142645    -0.22800
F3940       F  0.86636181  0.62607404  0.78115107    -0.20200
F3941       F  0.86397938  0.65675538  0.73038187    -0.19800
F3942       F  0.51805292  0.69175537  0.74090972    -0.19900
F3943       F  0.52748247  0.73902300  0.74636796    -0.20200
F3944       F  0.51164324  0.71503077  0.68270571    -0.22900
C3945       C  0.85840193  0.57552624  0.91822445    -0.05700
C3946       C  0.84825097  0.57807575  0.96049318     0.00200
C3947       C  0.81720563  0.56822827  0.96718280    -0.08400
C3948       C  0.79710226  0.55393338  0.93191999    -0.05700
C3949       C  0.80677940  0.54799797  0.89107257     0.00200
C3950       C  0.83862616  0.56194981  0.88291670    -0.08300
C3951       C  0.85332671  0.56439747  0.83773318     0.62100
H3952       H  0.88238250  0.58405835  0.91290545     0.12800
H3953       H  0.77346840  0.54632659  0.93697529     0.12800
C3954       C  0.80515436  0.57258269  0.67595439     0.62300
F3955       F  0.87910876  0.59236256  0.83270487    -0.22800
F3956       F  0.83447999  0.56131763  0.80345856    -0.20200
F3957       F  0.86183444  0.54294848  0.83435255    -0.19800
F3958       F  0.81731210  0.60283430  0.68412786    -0.19900
F3959       F  0.81325195  0.55983973  0.70937867    -0.20200
F3960       F  0.77396521  0.55919985  0.67698554    -0.22900
loop_ 
_geom_bond_atom_site_label_1 
_geom_bond_atom_site_label_2 
_geom_bond_distance 
_geom_bond_site_symmetry_2 
_ccdc_geom_bond_type 
C1            C6   1.406       .  A
C1          C332   1.414       .  A
C1          C316   1.495       .  S
C2            C3   1.415       .  A
C2          C661   1.414   1_554  A
C2            H7   1.080       .  S
C3            C4   1.415       .  A
C3          C303   1.503       .  S
C4          C665   1.402       .  A
C4            H8   1.084       .  S
C5            C6   1.401       .  A
C5          C334   1.401       .  A
C5          C401   1.491       .  S
C6            H9   1.082       .  S
C10          C11   1.416       .  A
C10          C15   1.406       .  A
C10         C284   1.484       .  S
C11         C342   1.415       .  A
C11          H16   1.078       .  S
C12          C13   1.402       .  A
C12         C671   1.412   1_554  A
C12         C268   1.500       .  S
C13         C674   1.389   1_554  A
C13          H17   1.085       .  S
C14          C15   1.391       .  A
C14         C343   1.389       .  A
C14          C64   1.458       .  S
C15          H18   1.084       .  S
C19          C20   1.408       .  A
C19          C24   1.407       .  A
C19         C239   1.487       .  S
C20         C681   1.406   1_554  A
C20          H25   1.081       .  S
C21          C22   1.409       .  A
C21         C350   1.406       .  A
C21         C252   1.492       .  S
C22         C353   1.406       .  A
C22          H26   1.084       .  S
C23          C24   1.401       .  A
C23         C682   1.407   1_554  A
C23          C60   1.486       .  S
C24          H27   1.084       .  S
C28          C29   1.399       .  A
C28          C33   1.414       .  A
C28         C220   1.484       .  S
C29          C30   1.392       .  A
C29          H34   1.082       .  S
C30         C361   1.400       .  A
C30          C98   1.462       .  S
C31          C32   1.401       .  A
C31         C690   1.401       .  A
C31          H35   1.085   1_556  S
C32         C693   1.413       .  A
C32         C204   1.495   1_556  S
C33         C362   1.411       .  A
C33          H36   1.083       .  S
C37          C38   1.409       .  A
C37          C42   1.423       .  A
C37         C191   1.523       .  S
C38          C39   1.398       .  A
C38          H43   1.083       .  S
C39         C370   1.393       .  A
C39         C426   1.476       .  S
C40          C41   1.407       .  A
C40         C699   1.393   1_554  A
C40          H44   1.083       .  S
C41         C702   1.425       .  A
C41         C175   1.503       .  S
C42         C371   1.424       .  A
C42          H45   1.077       .  S
C46          C47   1.421       .  A
C46          C51   1.408       .  A
C46         C156   1.491       .  S
C47         C378   1.414       .  A
C47          H52   1.081       .  S
C48          C49   1.390       .  A
C48         C707   1.416   1_554  A
C48         C140   1.489       .  S
C49         C710   1.385   1_554  A
C49          H53   1.083       .  S
C50          C51   1.394       .  A
C50         C379   1.385       .  A
C50          C72   1.459       .  S
C51          H54   1.084       .  S
O55         Mg57   2.122       .  S
O55        Mg393   2.151       .  S
O55          C90   1.236       .  S
C56        H1085   1.081       .  S
C56        O1059   1.234       .  S
C56          O93   1.268   1_565  A
Mg57       O2396   2.168       .  S
Mg57        O431   2.270       .  S
Mg57       O2077   2.225       .  S
Mg57       O2048   2.293       .  S
O58         Mg83   2.121       .  S
O58       Mg2410   2.161       .  S
O58          C79   1.234       .  S
O59          C90   1.272       .  A
O59       Mg1073   2.311       .  S
C60          O62   1.274       .  A
C60          O74   1.277       .  A
O61          C89   1.271       .  A
O61         Mg63   2.300       .  S
O62         Mg94   2.275       .  S
Mg63         O69   2.156       .  S
Mg63        O715   2.151   1_554  S
Mg63         O77   2.264       .  S
Mg63        O725   2.263   1_554  S
C64         O102   1.270       .  A
C64          O70   1.273       .  A
O65          C72   1.265       .  A
O65        Mg393   2.271       .  S
H66          C79   1.081       .  S
C67          H92   1.081       .  S
C67          O81   1.235       .  S
C67          O82   1.269       .  A
O68        C1081   1.266       .  A
O68       Mg2037   2.295   1_455  S
O69       Mg1733   2.140   1_554  S
O69        C1046   1.234       .  S
O70        Mg430   2.303   1_455  S
C71         C665   1.492       .  S
C71          O84   1.274       .  A
C71          O76   1.278       .  A
C72          O99   1.269       .  A
Mg73         O80   2.134       .  S
Mg73        O411   2.160       .  S
Mg73         O75   2.290       .  S
Mg73        O102   2.227       .  S
Mg73        O404   2.309       .  S
O74        Mg733   2.315   1_554  S
O75        C2059   1.268   1_455  A
O76        Mg743   2.325   1_554  S
O77          C96   1.267   1_554  A
O78          C98   1.275       .  A
O78       Mg1414   2.310       .  S
C79        O2055   1.268       .  A
O80        Mg424   2.156       .  S
O80          C91   1.231       .  S
O81        Mg100   2.167   1_455  S
O81        Mg733   2.160   1_554  S
O82         Mg94   2.298       .  S
Mg83       O1389   2.140   1_545  S
Mg83       O1049   2.314   1_545  S
Mg83        O406   2.317       .  S
Mg83       O1089   2.229   1_545  S
O84       Mg2080   2.279       .  S
H85          C90   1.081       .  S
O86       Mg2697   2.166   1_454  S
O86       Mg1084   2.154       .  S
O86        C2069   1.237   1_455  S
H87        C2069   1.081   1_455  S
H88          C91   1.081       .  S
C89        H2067   1.081       .  S
C89        O2066   1.237       .  S
C91        O1058   1.265   1_545  A
O93       Mg2080   2.296       .  S
Mg94        O740   2.155   1_554  S
Mg94       O1076   2.159   1_545  S
Mg94       O1728   2.312   1_544  S
H95        C1046   1.081       .  S
C96         C699   1.475       .  S
C96         O101   1.270       .  A
O97          C98   1.267       .  A
O97       Mg2037   2.223   1_455  S
O99       Mg1073   2.229       .  S
Mg100      O2698   2.160   1_554  S
Mg100       O730   2.303   1_655  S
Mg100      O2064   2.282       .  S
Mg100      O2073   2.297       .  S
O101       Mg717   2.272       .  S
C103        C107   1.537       .  S
C103       C2084   1.538       .  S
C103       C2089   1.537       .  S
C103        C287   1.552       .  S
C104       C2083   1.539       .  S
C104        H111   1.086       .  S
C104        C105   1.359       .  D
C105        C106   1.555       .  S
C105        C300   1.498       .  S
C106        C110   1.556       .  S
C106       C2088   1.559       .  S
C106        H112   1.100       .  S
C107        H113   1.086       .  S
C107        C108   1.379       .  D
C108       C2086   1.559   1_455  S
C108        C207   1.526       .  S
C109       C2083   1.537       .  S
C109        H114   1.080       .  S
C109        C110   1.368       .  D
C110        C188   1.503       .  S
C115        C119   1.535       .  S
C115       C1106   1.534       .  S
C115       C1111   1.542       .  S
C115        C143   1.551       .  S
C116       C1105   1.534   1_545  S
C116        H123   1.081       .  S
C116        C117   1.375       .  D
C117        C118   1.559       .  S
C117        C319   1.517       .  S
C118        C122   1.541       .  S
C118       C1110   1.552   1_545  S
C118        H124   1.106       .  S
C119        H125   1.084       .  S
C119        C120   1.364       .  D
C120       C1108   1.552       .  S
C120        C223   1.490       .  S
C121       C1105   1.541   1_545  S
C121        H126   1.085       .  S
C121        C122   1.362       .  D
C122        C236   1.491       .  S
C127        C128   1.526       .  S
C127        C133   1.539       .  S
C127        C131   1.541       .  S
C127        C271   1.557       .  S
C128        H135   1.078       .  S
C128        C129   1.357       .  D
C129        C130   1.551       .  S
C129        C255   1.487       .  S
C130        C134   1.549       .  S
C130        C132   1.564       .  S
C130        H136   1.093       .  S
C131        H137   1.076       .  S
C131        C132   1.384       .  D
C132        C159   1.542       .  S
C133        H138   1.084       .  S
C133        C134   1.367       .  D
C134        C172   1.511       .  S
C139        C140   1.397       .  A
C139        C144   1.413       .  A
C139        H146   1.085       .  S
C140        C141   1.422       .  A
C141        C142   1.402       .  A
C141        C808   1.523   1_554  S
C142        C143   1.411       .  A
C142        H147   1.079       .  S
C143        C144   1.428       .  A
C144        C145   1.512       .  S
C145        F149   1.385       .  S
C145        F150   1.382       .  S
C145        F151   1.378       .  S
C148        C471   1.523       .  S
C148        F152   1.383       .  S
C148        F153   1.380       .  S
C148        F154   1.377       .  S
C155        C156   1.401       .  A
C155        C160   1.417       .  A
C155        H162   1.083       .  S
C156        C157   1.404       .  A
C157        C158   1.404       .  A
C157        C164   1.518       .  S
C158        C159   1.423       .  A
C158        H163   1.077       .  S
C159        C160   1.441       .  A
C160        C161   1.520       .  S
C161        F165   1.386       .  S
C161        F166   1.381       .  S
C161        F167   1.377       .  S
C164        F168   1.378       .  S
C164        F169   1.382       .  S
C164        F170   1.384       .  S
C171        C172   1.404       .  A
C171        C176   1.409       .  A
C171        H178   1.082       .  S
C172        C173   1.426       .  A
C173        C174   1.412       .  A
C173        C180   1.512       .  S
C174        C175   1.404       .  A
C174        H179   1.084       .  S
C175        C176   1.425       .  A
C176        C177   1.518       .  S
C177        F181   1.385       .  S
C177        F182   1.383       .  S
C177        F183   1.382       .  S
C180        F184   1.381       .  S
C180        F185   1.379       .  S
C180        F186   1.385       .  S
C187        C188   1.406       .  A
C187        C192   1.424       .  A
C187        H194   1.083       .  S
C188        C189   1.413       .  A
C189        C190   1.405       .  A
C189       C2176   1.516       .  S
C190        C191   1.413       .  A
C190        H195   1.082       .  S
C191        C192   1.430       .  A
C192        C193   1.518       .  S
C193        F197   1.385       .  S
C193        F198   1.384       .  S
C193        F199   1.381       .  S
C196       C2169   1.517   1_455  S
C196        F200   1.385       .  S
C196        F201   1.383       .  S
C196        F202   1.372       .  S
C203        C204   1.400       .  A
C203        C208   1.414       .  A
C203        H210   1.082   1_554  S
C204        C205   1.414       .  A
C205        C206   1.411       .  A
C205        C212   1.518       .  S
C206        C207   1.415       .  A
C206        H211   1.081       .  S
C207        C208   1.434       .  A
C208       C2189   1.515   1_455  S
C209       C2188   1.515       .  S
C209        F213   1.382   1_554  S
C209        F214   1.381       .  S
C209        F215   1.369       .  S
C212        F216   1.382       .  S
C212        F217   1.382       .  S
C212        F218   1.384       .  S
C219        C220   1.399       .  A
C219        C224   1.405       .  A
C219        H226   1.083       .  S
C220        C221   1.422       .  A
C221        C222   1.408       .  A
C221        C228   1.520       .  S
C222        C223   1.400       .  A
C222        H227   1.083       .  S
C223        C224   1.417       .  A
C224        C225   1.505       .  S
C225        F229   1.375       .  S
C225        F230   1.381       .  S
C225        F231   1.385       .  S
C228        F232   1.380       .  S
C228        F233   1.384       .  S
C228        F234   1.381       .  S
C235        C236   1.404       .  A
C235        C240   1.399       .  A
C235        H242   1.085       .  S
C236        C237   1.419       .  A
C237        C238   1.414       .  A
C237        C244   1.517       .  S
C238        C239   1.407       .  A
C238        H243   1.083       .  S
C239        C240   1.418       .  A
C240        C901   1.522       .  S
C241        C570   1.522       .  S
C241        F245   1.384       .  S
C241        F246   1.382       .  S
C241        F247   1.382       .  S
C244        F248   1.382       .  S
C244        F249   1.380       .  S
C244        F250   1.385       .  S
C251        C252   1.399       .  A
C251        C256   1.400       .  A
C251        H258   1.078       .  S
C252        C253   1.421       .  A
C253        C254   1.416       .  A
C253        C260   1.520       .  S
C254        C255   1.406       .  A
C254        H259   1.083       .  S
C255        C256   1.422       .  A
C256        C257   1.519       .  S
C257        F261   1.384       .  S
C257        F262   1.382       .  S
C257        F263   1.371       .  S
C260        F264   1.384       .  S
C260        F265   1.381       .  S
C260        F266   1.384       .  S
C267        C268   1.404       .  A
C267        C272   1.403       .  A
C267        H274   1.082       .  S
C268        C269   1.414       .  A
C269        C270   1.412       .  A
C269        C276   1.521       .  S
C270        C271   1.422       .  A
C270        H275   1.074       .  S
C271        C272   1.434       .  A
C272        C273   1.529       .  S
C273        F277   1.382       .  S
C273        F278   1.379       .  S
C273        F279   1.374       .  S
C276        F280   1.384       .  S
C276        F281   1.381       .  S
C276        F282   1.385       .  S
C283        C284   1.400       .  A
C283        C288   1.408       .  A
C283        H290   1.085       .  S
C284        C285   1.417       .  A
C285        C286   1.404       .  A
C285        C292   1.519       .  S
C286        C287   1.412       .  A
C286        H291   1.083       .  S
C287        C288   1.428       .  A
C288        C289   1.513       .  S
C289        F293   1.385       .  S
C289        F294   1.381       .  S
C289        F295   1.378       .  S
C292        F296   1.383       .  S
C292        F297   1.383       .  S
C292        F298   1.383       .  S
C299        C300   1.406       .  A
C299        C304   1.421       .  A
C299        H306   1.083       .  S
C300        C301   1.427       .  A
C301        C302   1.399       .  A
C301       C2288   1.525       .  S
C302        C303   1.402       .  A
C302        H307   1.086       .  S
C303        C304   1.424       .  A
C304        C305   1.517       .  S
C305        F309   1.385       .  S
C305        F310   1.379       .  S
C305        F311   1.381       .  S
C308       C2281   1.525   1_455  S
C308        F312   1.383       .  S
C308        F313   1.377       .  S
C308        F314   1.385       .  S
C315        C316   1.401       .  A
C315        C320   1.405       .  A
C315        H322   1.085       .  S
C316        C317   1.415       .  A
C317        C318   1.418       .  A
C317        C654   1.518       .  S
C318        C319   1.412       .  A
C318        H323   1.076       .  S
C319        C320   1.429       .  A
C320        C321   1.521       .  S
C321        F325   1.384       .  S
C321        F326   1.381       .  S
C321        F327   1.383       .  S
C324        C977   1.518   1_554  S
C324        F328   1.382       .  S
C324        F329   1.382       .  S
C324        F330   1.385       .  S
C331        C662   1.413       .  A
C331        C336   1.405       .  A
C331        C646   1.494       .  S
C332        C333   1.415       .  A
C332        H337   1.080       .  S
C333        C334   1.414       .  A
C333        C633   1.502       .  S
C334        H338   1.084       .  S
C335        C664   1.401       .  A
C335        C336   1.400       .  A
C335        C731   1.490       .  S
C336        H339   1.082       .  S
C340        C341   1.415       .  A
C340        C345   1.406       .  A
C340        C614   1.484       .  S
C341        C672   1.414       .  A
C341        H346   1.078       .  S
C342        C343   1.402       .  A
C342        C598   1.503       .  S
C343        H347   1.085       .  S
C344        C673   1.389       .  A
C344        C345   1.391       .  A
C344        C394   1.459       .  S
C345        H348   1.083       .  S
C349        C350   1.408       .  A
C349        C354   1.407       .  A
C349        C569   1.485       .  S
C350        H355   1.082       .  S
C351        C680   1.406       .  A
C351        C352   1.410       .  A
C351        C582   1.494       .  S
C352        C683   1.406       .  A
C352        H356   1.084       .  S
C353        C354   1.400       .  A
C353        C390   1.485       .  S
C354        H357   1.084       .  S
C358        C359   1.400       .  A
C358        C363   1.415       .  A
C358        C550   1.485       .  S
C359        C360   1.392       .  A
C359        H364   1.082       .  S
C360        C691   1.400       .  A
C360        C428   1.463       .  S
C361        C362   1.401       .  A
C361        H365   1.085       .  S
C362        C534   1.492       .  S
C363        C692   1.411       .  A
C363        H366   1.082       .  S
C367        C368   1.409       .  A
C367        C372   1.422       .  A
C367        C521   1.521       .  S
C368        C369   1.397       .  A
C368        H373   1.083       .  S
C369        C700   1.393       .  A
C369        C756   1.476       .  S
C370        C371   1.407       .  A
C370        H374   1.083       .  S
C371        C505   1.501       .  S
C372        C701   1.423       .  A
C372        H375   1.077       .  S
C376        C377   1.421       .  A
C376        C381   1.407       .  A
C376        C486   1.491       .  S
C377        C708   1.414       .  A
C377        H382   1.081       .  S
C378        C379   1.390       .  A
C378        C470   1.486       .  S
C379        H383   1.083       .  S
C380        C709   1.385       .  A
C380        C381   1.395       .  A
C380        C402   1.459       .  S
C381        H384   1.084       .  S
O385       Mg387   2.119       .  S
O385       Mg723   2.150       .  S
O385        C420   1.236       .  S
C386       H1415   1.081       .  S
C386       O1389   1.234       .  S
C386        O423   1.268   1_565  A
Mg387      O2726   2.170       .  S
Mg387       O761   2.277       .  S
Mg387      O2407   2.220       .  S
Mg387      O2378   2.295       .  S
O388      Mg2740   2.160       .  S
O388       Mg413   2.124       .  S
O388        C409   1.234       .  S
O389        C420   1.271       .  A
O389      Mg1403   2.310       .  S
C390        O392   1.274       .  A
C390        O404   1.276       .  A
O391        C419   1.271       .  A
O391       Mg393   2.299       .  S
O392       Mg424   2.275       .  S
Mg393       O399   2.157       .  S
Mg393       O407   2.269       .  S
C394        O432   1.271       .  A
C394        O400   1.273       .  A
O395        C402   1.263       .  A
O395       Mg723   2.266       .  S
H396        C409   1.081       .  S
C397        H422   1.081       .  S
C397        O411   1.235       .  S
C397        O412   1.269       .  A
O398       C1411   1.266       .  A
O398      Mg2367   2.295   1_455  S
O399      Mg1073   2.140       .  S
O399       C1376   1.235       .  S
O400       Mg760   2.303   1_455  S
C401        O414   1.275       .  A
C401        O406   1.277       .  A
C402        O429   1.269       .  A
Mg403       O410   2.135       .  S
Mg403       O741   2.159       .  S
Mg403       O734   2.312       .  S
Mg403       O405   2.291       .  S
Mg403       O432   2.233       .  S
O405       C2389   1.268   1_455  A
O407        C426   1.268       .  A
O408        C428   1.275       .  A
O408      Mg1744   2.310       .  S
C409       O2385   1.268       .  A
O410       Mg754   2.156   1_545  S
O410        C421   1.232       .  S
O411       Mg430   2.168   1_455  S
O412       Mg424   2.299       .  S
Mg413      O1719   2.138   1_545  S
Mg413      O1379   2.314   1_545  S
Mg413       O736   2.317       .  S
Mg413      O1419   2.232   1_545  S
O414      Mg2410   2.280       .  S
H415        C420   1.081       .  S
O416      Mg2037   2.168   1_455  S
O416      Mg1414   2.157       .  S
O416       C2399   1.237   1_455  S
H417       C2399   1.081   1_455  S
H418        C421   1.081       .  S
C419       H2397   1.081       .  S
C419       O2396   1.237       .  S
C421       O1388   1.266   1_545  A
O423      Mg2410   2.296       .  S
Mg424      O1406   2.156   1_545  S
Mg424      O1068   2.312   1_545  S
H425       C1376   1.081       .  S
C426        O431   1.270       .  A
O427        C428   1.267       .  A
O427      Mg2367   2.228   1_455  S
O429      Mg1403   2.229       .  S
Mg430      O2038   2.157       .  S
Mg430      O2394   2.284       .  S
Mg430      O2403   2.298       .  S
C433       C2414   1.539       .  S
C433       C2419   1.538       .  S
C433        C437   1.535       .  S
C433        C617   1.549       .  S
C434       C2413   1.539       .  S
C434        H441   1.086       .  S
C434        C435   1.360       .  D
C435        C436   1.554       .  S
C435        C630   1.496       .  S
C436        C440   1.554       .  S
C436       C2418   1.557       .  S
C436        H442   1.100       .  S
C437        H443   1.086       .  S
C437        C438   1.378       .  D
C438       C2416   1.558   1_455  S
C438        C537   1.523       .  S
C439       C2413   1.537       .  S
C439        H444   1.080       .  S
C439        C440   1.366       .  D
C440        C518   1.500       .  S
C445       C1436   1.533       .  S
C445       C1441   1.541       .  S
C445        C449   1.535       .  S
C445        C473   1.549       .  S
C446       C1435   1.534   1_545  S
C446        H453   1.081       .  S
C446        C447   1.375       .  D
C447        C448   1.558       .  S
C447        C649   1.516       .  S
C448        C452   1.540       .  S
C448       C1440   1.551   1_545  S
C448        H454   1.106       .  S
C449        H455   1.084       .  S
C449        C450   1.364       .  D
C450       C1438   1.553       .  S
C450        C553   1.491       .  S
C451       C1435   1.542   1_545  S
C451        H456   1.085       .  S
C451        C452   1.363       .  D
C452        C566   1.491       .  S
C457        C458   1.527       .  S
C457        C463   1.538       .  S
C457        C461   1.542       .  S
C457        C601   1.558       .  S
C458        H465   1.079       .  S
C458        C459   1.358       .  D
C459        C460   1.550       .  S
C459        C585   1.486       .  S
C460        C464   1.549       .  S
C460        C462   1.564       .  S
C460        H466   1.093       .  S
C461        H467   1.077       .  S
C461        C462   1.384       .  D
C462        C489   1.542       .  S
C463        H468   1.084       .  S
C463        C464   1.366       .  D
C464        C502   1.510       .  S
C469        C470   1.397       .  A
C469        C474   1.411       .  A
C469        H476   1.085       .  S
C470        C471   1.421       .  A
C471        C472   1.401       .  A
C472        C473   1.411       .  A
C472        H477   1.078       .  S
C473        C474   1.427       .  A
C474        C475   1.512       .  S
C475        F479   1.385       .  S
C475        F480   1.382       .  S
C475        F481   1.378       .  S
C478        C801   1.524       .  S
C478        F482   1.383       .  S
C478        F483   1.380       .  S
C478        F484   1.377       .  S
C485        C486   1.401       .  A
C485        C490   1.418       .  A
C485        H492   1.083       .  S
C486        C487   1.403       .  A
C487        C488   1.405       .  A
C487        C494   1.518       .  S
C488        C489   1.422       .  A
C488        H493   1.077       .  S
C489        C490   1.442       .  A
C490        C491   1.521       .  S
C491        F495   1.386       .  S
C491        F496   1.381       .  S
C491        F497   1.377       .  S
C494        F498   1.378       .  S
C494        F499   1.382       .  S
C494        F500   1.384       .  S
C501        C502   1.404       .  A
C501        C506   1.409       .  A
C501        H508   1.082       .  S
C502        C503   1.425       .  A
C503        C504   1.411       .  A
C503        C510   1.513       .  S
C504        C505   1.404       .  A
C504        H509   1.084       .  S
C505        C506   1.424       .  A
C506        C507   1.518       .  S
C507        F511   1.384       .  S
C507        F512   1.383       .  S
C507        F513   1.383       .  S
C510        F514   1.382       .  S
C510        F515   1.380       .  S
C510        F516   1.385       .  S
C517        C518   1.405       .  A
C517        C522   1.423       .  A
C517        H524   1.083       .  S
C518        C519   1.412       .  A
C519        C520   1.403       .  A
C519       C2506   1.517       .  S
C520        C521   1.413       .  A
C520        H525   1.082       .  S
C521        C522   1.430       .  A
C522        C523   1.517       .  S
C523        F527   1.385       .  S
C523        F528   1.383       .  S
C523        F529   1.382       .  S
C526       C2499   1.517   1_455  S
C526        F530   1.385       .  S
C526        F531   1.383       .  S
C526        F532   1.373       .  S
C533        C534   1.399       .  A
C533        C538   1.412       .  A
C533        H540   1.082       .  S
C534        C535   1.413       .  A
C535        C536   1.410       .  A
C535        C542   1.519       .  S
C536        C537   1.415       .  A
C536        H541   1.081       .  S
C537        C538   1.433       .  A
C538       C2519   1.515   1_455  S
C539       C2518   1.515       .  S
C539        F543   1.382       .  S
C539        F544   1.381       .  S
C539        F545   1.369       .  S
C542        F546   1.381       .  S
C542        F547   1.382       .  S
C542        F548   1.385       .  S
C549        C550   1.399       .  A
C549        C554   1.405       .  A
C549        H556   1.083       .  S
C550        C551   1.421       .  A
C551        C552   1.409       .  A
C551        C558   1.520       .  S
C552        C553   1.401       .  A
C552        H557   1.083       .  S
C553        C554   1.417       .  A
C554        C555   1.505       .  S
C555        F559   1.375       .  S
C555        F560   1.381       .  S
C555        F561   1.385       .  S
C558        F562   1.380       .  S
C558        F563   1.384       .  S
C558        F564   1.381       .  S
C565        C566   1.404       .  A
C565        C570   1.397       .  A
C565        H572   1.085       .  S
C566        C567   1.419       .  A
C567        C568   1.414       .  A
C567        C574   1.517       .  S
C568        C569   1.407       .  A
C568        H573   1.083       .  S
C569        C570   1.418       .  A
C571        C900   1.522       .  S
C571        F575   1.384       .  S
C571        F576   1.382       .  S
C571        F577   1.383   1_545  S
C574        F578   1.382       .  S
C574        F579   1.380       .  S
C574        F580   1.385       .  S
C581        C582   1.399       .  A
C581        C586   1.398       .  A
C581        H588   1.072       .  S
C582        C583   1.422       .  A
C583        C584   1.417       .  A
C583        C590   1.519       .  S
C584        C585   1.406       .  A
C584        H589   1.082       .  S
C585        C586   1.420       .  A
C586        C587   1.519       .  S
C587        F591   1.383       .  S
C587        F592   1.382       .  S
C587        F593   1.371       .  S
C590        F594   1.383       .  S
C590        F595   1.381       .  S
C590        F596   1.384       .  S
C597        C598   1.406       .  A
C597        C602   1.404       .  A
C597        H604   1.082       .  S
C598        C599   1.414       .  A
C599        C600   1.412       .  A
C599        C606   1.520       .  S
C600        C601   1.421       .  A
C600        H605   1.074       .  S
C601        C602   1.434       .  A
C602        C603   1.529       .  S
C603        F607   1.381       .  S
C603        F608   1.380       .  S
C603        F609   1.374       .  S
C606        F610   1.384       .  S
C606        F611   1.381       .  S
C606        F612   1.385       .  S
C613        C614   1.401       .  A
C613        C618   1.408       .  A
C613        H620   1.085       .  S
C614        C615   1.416       .  A
C615        C616   1.403       .  A
C615        C622   1.518       .  S
C616        C617   1.411       .  A
C616        H621   1.083       .  S
C617        C618   1.427       .  A
C618        C619   1.512       .  S
C619        F623   1.385       .  S
C619        F624   1.381       .  S
C619        F625   1.377       .  S
C622        F626   1.383       .  S
C622        F627   1.383       .  S
C622        F628   1.384       .  S
C629        C630   1.406       .  A
C629        C634   1.421       .  A
C629        H636   1.083       .  S
C630        C631   1.427       .  A
C631        C632   1.398       .  A
C631       C2618   1.525       .  S
C632        C633   1.402       .  A
C632        H637   1.086       .  S
C633        C634   1.423       .  A
C634        C635   1.517       .  S
C635        F639   1.385       .  S
C635        F640   1.380       .  S
C635        F641   1.381       .  S
C638       C2611   1.525   1_455  S
C638        F642   1.383       .  S
C638        F643   1.376       .  S
C638        F644   1.385       .  S
C645        C646   1.401       .  A
C645        C650   1.405       .  A
C645        H652   1.085       .  S
C646        C647   1.415       .  A
C647        C648   1.417       .  A
C647        C984   1.518       .  S
C648        C649   1.412       .  A
C648        H653   1.076       .  S
C649        C650   1.428       .  A
C650        C651   1.521       .  S
C651        F655   1.384       .  S
C651        F656   1.382       .  S
C651        F657   1.383       .  S
C654        F658   1.381       .  S
C654        F659   1.382       .  S
C654        F660   1.385       .  S
C661        C666   1.406   1_556  A
C661        C976   1.495       .  S
C662        C663   1.415       .  A
C662        H667   1.080       .  S
C663        C664   1.414       .  A
C663        C963   1.502       .  S
C664        H668   1.084       .  S
C665        C666   1.401       .  A
C666        H669   1.082   1_554  S
C670        C671   1.415       .  A
C670        C675   1.407       .  A
C670        C944   1.484       .  S
C671        H676   1.078       .  S
C672        C673   1.402       .  A
C672        C928   1.502       .  S
C673        H677   1.085       .  S
C674        C675   1.392       .  A
C674        C724   1.459       .  S
C675        H678   1.084       .  S
C679        C680   1.408       .  A
C679        C684   1.407       .  A
C679        C899   1.486       .  S
C680        H685   1.081       .  S
C681        C682   1.410       .  A
C681        C912   1.495       .  S
C682        H686   1.084       .  S
C683        C684   1.401       .  A
C683        C720   1.485       .  S
C684        H687   1.084       .  S
C688        C689   1.400       .  A
C688        C693   1.417       .  A
C688        C880   1.487       .  S
C689        C690   1.392       .  A
C689        H694   1.082       .  S
C690        C758   1.463       .  S
C691        C692   1.402       .  A
C691        H695   1.085       .  S
C692        C864   1.493       .  S
C693        H696   1.083       .  S
C697        C698   1.408       .  A
C697        C702   1.423   1_556  A
C697        C851   1.521       .  S
C698        C699   1.397       .  A
C698        H703   1.084       .  S
C700        C701   1.407       .  A
C700        H704   1.083       .  S
C701        C835   1.502       .  S
C702        H705   1.077       .  S
C706        C707   1.423       .  A
C706        C711   1.406       .  A
C706        C816   1.493       .  S
C707        H712   1.081   1_556  S
C708        C709   1.389       .  A
C708        C800   1.486       .  S
C709        H713   1.083       .  S
C710        C711   1.394       .  A
C710        C732   1.459       .  S
C711        H714   1.084       .  S
O715       Mg717   2.120       .  S
O715        C750   1.236       .  S
C716       H1745   1.081       .  S
C716       O1719   1.235       .  S
C716        O753   1.269   1_565  A
Mg717      O2066   2.166   1_556  S
Mg717      O2737   2.222       .  S
Mg717      O2708   2.296       .  S
O718      Mg2080   2.160   1_556  S
O718       Mg743   2.121       .  S
O718        C739   1.234       .  S
O719        C750   1.272       .  A
O719      Mg1733   2.314       .  S
C720        O722   1.273       .  A
C720        O734   1.276       .  A
O721        C749   1.271       .  A
O721       Mg723   2.301       .  S
O722       Mg754   2.272   1_545  S
Mg723       O729   2.155       .  S
Mg723       O737   2.264       .  S
C724        O762   1.272       .  A
C724        O730   1.272   1_556  A
O725        C732   1.263       .  A
H726        C739   1.081       .  S
C727        H752   1.081       .  S
C727        O741   1.235       .  S
C727        O742   1.269       .  A
O728       C1741   1.266       .  A
O728      Mg2697   2.294   1_455  S
O729      Mg1403   2.140       .  S
O729       C1706   1.235       .  S
C731        O744   1.274       .  A
C731        O736   1.277       .  A
C732        O759   1.269       .  A
Mg733       O740   2.139       .  S
Mg733       O735   2.290       .  S
Mg733       O762   2.237       .  S
O735       C2719   1.268   1_455  A
O737        C756   1.267       .  A
O738        C758   1.276       .  A
O738      Mg1084   2.314   1_556  S
C739       O2715   1.268       .  A
O740        C751   1.232       .  S
O741       Mg760   2.164   1_455  S
O742       Mg754   2.296   1_545  S
Mg743      O1059   2.141   1_546  S
Mg743      O1709   2.313   1_545  S
Mg743      O1749   2.228   1_545  S
O744      Mg2740   2.278       .  S
H745        C750   1.081       .  S
O746      Mg2367   2.170   1_455  S
O746      Mg1744   2.163       .  S
O746       C2729   1.237   1_455  S
H747       C2729   1.081       .  S
H748        C751   1.081       .  S
C749       H2727   1.081       .  S
C749       O2726   1.237       .  S
C751       O1718   1.266   1_545  A
O753      Mg2740   2.298       .  S
Mg754      O1736   2.157       .  S
Mg754      O1398   2.305       .  S
H755       C1706   1.081       .  S
C756        O761   1.271       .  A
O757        C758   1.267       .  A
O757      Mg2697   2.222   1_455  S
O759      Mg1733   2.231       .  S
Mg760      O2368   2.161       .  S
Mg760      O2724   2.281       .  S
Mg760      O2733   2.298       .  S
C763       C2744   1.537       .  S
C763       C2749   1.537       .  S
C763        C767   1.536       .  S
C763        C947   1.550       .  S
C764       C2743   1.538       .  S
C764        H771   1.086       .  S
C764        C765   1.359       .  D
C765        C766   1.554       .  S
C765        C960   1.496       .  S
C766        C770   1.557       .  S
C766       C2748   1.559       .  S
C766        H772   1.099       .  S
C767        H773   1.085       .  S
C767        C768   1.379       .  D
C768       C2746   1.558   1_455  S
C768        C867   1.525       .  S
C769       C2743   1.537       .  S
C769        H774   1.082       .  S
C769        C770   1.367       .  D
C770        C848   1.505       .  S
C775       C1766   1.534       .  S
C775       C1771   1.541       .  S
C775        C779   1.535       .  S
C775        C803   1.550       .  S
C776       C1765   1.534   1_545  S
C776        H783   1.081       .  S
C776        C777   1.376       .  D
C777        C778   1.558       .  S
C777        C979   1.516       .  S
C778        C782   1.541       .  S
C778       C1770   1.551   1_545  S
C778        H784   1.107       .  S
C779        H785   1.085       .  S
C779        C780   1.364       .  D
C780       C1768   1.553       .  S
C780        C883   1.492       .  S
C781       C1765   1.540   1_545  S
C781        H786   1.086       .  S
C781        C782   1.362       .  D
C782        C896   1.490       .  S
C787        C788   1.525       .  S
C787        C793   1.537       .  S
C787        C791   1.543       .  S
C787        C931   1.557       .  S
C788        H795   1.079       .  S
C788        C789   1.357       .  D
C789        C790   1.552       .  S
C789        C915   1.487       .  S
C790        C794   1.549       .  S
C790        C792   1.564       .  S
C790        H796   1.093       .  S
C791        H797   1.076       .  S
C791        C792   1.385       .  D
C792        C819   1.543       .  S
C793        H798   1.084       .  S
C793        C794   1.365       .  D
C794        C832   1.509       .  S
C799        C800   1.396       .  A
C799        C804   1.411       .  A
C799        H806   1.085       .  S
C800        C801   1.421       .  A
C801        C802   1.403       .  A
C802        C803   1.412       .  A
C802        H807   1.078       .  S
C803        C804   1.427       .  A
C804        C805   1.512       .  S
C805        F809   1.385       .  S
C805        F810   1.381       .  S
C805        F811   1.377       .  S
C808        F812   1.383       .  S
C808        F813   1.380       .  S
C808        F814   1.377       .  S
C815        C816   1.402       .  A
C815        C820   1.419       .  A
C815        H822   1.083       .  S
C816        C817   1.404       .  A
C817        C818   1.405       .  A
C817        C824   1.517       .  S
C818        C819   1.421       .  A
C818        H823   1.078       .  S
C819        C820   1.441       .  A
C820        C821   1.520       .  S
C821        F825   1.385       .  S
C821        F826   1.381       .  S
C821        F827   1.378       .  S
C824        F828   1.378       .  S
C824        F829   1.382       .  S
C824        F830   1.384       .  S
C831        C832   1.403       .  A
C831        C836   1.408       .  A
C831        H838   1.082       .  S
C832        C833   1.425       .  A
C833        C834   1.412       .  A
C833        C840   1.513       .  S
C834        C835   1.404       .  A
C834        H839   1.084       .  S
C835        C836   1.424       .  A
C836        C837   1.518       .  S
C837        F841   1.384       .  S
C837        F842   1.383       .  S
C837        F843   1.383       .  S
C840        F844   1.381       .  S
C840        F845   1.381       .  S
C840        F846   1.385       .  S
C847        C848   1.407       .  A
C847        C852   1.425       .  A
C847        H854   1.083       .  S
C848        C849   1.414       .  A
C849        C850   1.405       .  A
C849       C2836   1.516       .  S
C850        C851   1.412       .  A
C850        H855   1.082       .  S
C851        C852   1.429       .  A
C852        C853   1.518       .  S
C853        F857   1.385       .  S
C853        F858   1.384       .  S
C853        F859   1.381       .  S
C856       C2829   1.517   1_455  S
C856        F860   1.385       .  S
C856        F861   1.383       .  S
C856        F862   1.373       .  S
C863        C864   1.399       .  A
C863        C868   1.413       .  A
C863        H870   1.082       .  S
C864        C865   1.414       .  A
C865        C866   1.410       .  A
C865        C872   1.520       .  S
C866        C867   1.415       .  A
C866        H871   1.081       .  S
C867        C868   1.434       .  A
C868       C2849   1.516   1_455  S
C869       C2848   1.516       .  S
C869        F873   1.383       .  S
C869        F874   1.380       .  S
C869        F875   1.370       .  S
C872        F876   1.382       .  S
C872        F877   1.382       .  S
C872        F878   1.385       .  S
C879        C880   1.399       .  A
C879        C884   1.406       .  A
C879        H886   1.083       .  S
C880        C881   1.422       .  A
C881        C882   1.410       .  A
C881        C888   1.521       .  S
C882        C883   1.401       .  A
C882        H887   1.083       .  S
C883        C884   1.417       .  A
C884        C885   1.505       .  S
C885        F889   1.375       .  S
C885        F890   1.381       .  S
C885        F891   1.385       .  S
C888        F892   1.380       .  S
C888        F893   1.384       .  S
C888        F894   1.382       .  S
C895        C896   1.404       .  A
C895        C900   1.398       .  A
C895        H902   1.085       .  S
C896        C897   1.418       .  A
C897        C898   1.414       .  A
C897        C904   1.517       .  S
C898        C899   1.408       .  A
C898        H903   1.083       .  S
C899        C900   1.419       .  A
C901        F905   1.384       .  S
C901        F906   1.383   1_554  S
C901        F907   1.383       .  S
C904        F908   1.382       .  S
C904        F909   1.380       .  S
C904        F910   1.385       .  S
C911        C912   1.399       .  A
C911        C916   1.400       .  A
C911        H918   1.077   1_556  S
C912        C913   1.422       .  A
C913        C914   1.416       .  A
C913        C920   1.520       .  S
C914        C915   1.406       .  A
C914        H919   1.083       .  S
C915        C916   1.421       .  A
C916        C917   1.519       .  S
C917        F921   1.383       .  S
C917        F922   1.382       .  S
C917        F923   1.371       .  S
C920        F924   1.383       .  S
C920        F925   1.381       .  S
C920        F926   1.384       .  S
C927        C928   1.405       .  A
C927        C932   1.404       .  A
C927        H934   1.082       .  S
C928        C929   1.414       .  A
C929        C930   1.412       .  A
C929        C936   1.521       .  S
C930        C931   1.421       .  A
C930        H935   1.074       .  S
C931        C932   1.435       .  A
C932        C933   1.531       .  S
C933        F937   1.382       .  S
C933        F938   1.378       .  S
C933        F939   1.374       .  S
C936        F940   1.383       .  S
C936        F941   1.381       .  S
C936        F942   1.385       .  S
C943        C944   1.401       .  A
C943        C948   1.407       .  A
C943        H950   1.085       .  S
C944        C945   1.417       .  A
C945        C946   1.404       .  A
C945        C952   1.519       .  S
C946        C947   1.412       .  A
C946        H951   1.083       .  S
C947        C948   1.427       .  A
C948        C949   1.513       .  S
C949        F953   1.385       .  S
C949        F954   1.381       .  S
C949        F955   1.378       .  S
C952        F956   1.383       .  S
C952        F957   1.383       .  S
C952        F958   1.383       .  S
C959        C960   1.406       .  A
C959        C964   1.420       .  A
C959        H966   1.083       .  S
C960        C961   1.427       .  A
C961        C962   1.398       .  A
C961       C2948   1.525       .  S
C962        C963   1.402       .  A
C962        H967   1.085       .  S
C963        C964   1.424       .  A
C964        C965   1.517       .  S
C965        F969   1.385       .  S
C965        F970   1.380       .  S
C965        F971   1.381       .  S
C968       C2941   1.525   1_455  S
C968        F972   1.383       .  S
C968        F973   1.377       .  S
C968        F974   1.385       .  S
C975        C976   1.401       .  A
C975        C980   1.405       .  A
C975        H982   1.085       .  S
C976        C977   1.416       .  A
C977        C978   1.417       .  A
C978        C979   1.412       .  A
C978        H983   1.076       .  S
C979        C980   1.428       .  A
C980        C981   1.520       .  S
C981        F985   1.384       .  S
C981        F986   1.382       .  S
C981        F987   1.383       .  S
C984        F988   1.381       .  S
C984        F989   1.382       .  S
C984        F990   1.385       .  S
C991       C1322   1.412       .  A
C991        C996   1.405       .  A
C991       C1306   1.493       .  S
C992       C1651   1.413   1_554  A
C992        C993   1.415       .  A
C992        H997   1.080       .  S
C993        C994   1.415       .  A
C993       C1293   1.502       .  S
C994       C1655   1.401       .  A
C994        H998   1.084       .  S
C995       C1324   1.401       .  A
C995        C996   1.401       .  A
C995       C1391   1.490       .  S
C996        H999   1.082       .  S
C1000      C1001   1.414       .  A
C1000      C1005   1.407       .  A
C1000      C1274   1.483       .  S
C1001      C1332   1.412       .  A
C1001      H1006   1.078       .  S
C1002      C1661   1.415   1_554  A
C1002      C1003   1.402       .  A
C1002      C1258   1.504       .  S
C1003      C1664   1.390   1_554  A
C1003      H1007   1.085       .  S
C1004      C1333   1.389       .  A
C1004      C1005   1.392       .  A
C1004      C1054   1.460       .  S
C1005      H1008   1.083       .  S
C1009      C1010   1.410       .  A
C1009      C1014   1.407       .  A
C1009      C1229   1.489       .  S
C1010      C1671   1.408   1_554  A
C1010      H1015   1.082       .  S
C1011      C1340   1.406       .  A
C1011      C1012   1.409       .  A
C1011      C1242   1.494       .  S
C1012      C1343   1.406       .  A
C1012      H1016   1.084       .  S
C1013      C1672   1.405   1_554  A
C1013      C1014   1.400       .  A
C1013      C1050   1.484       .  S
C1014      H1017   1.083       .  S
C1018      C1019   1.399       .  A
C1018      C1023   1.415       .  A
C1018      C1210   1.485       .  S
C1019      C1020   1.392       .  A
C1019      H1024   1.082       .  S
C1020      C1351   1.401       .  A
C1020      C1088   1.463       .  S
C1021      C1680   1.400       .  A
C1021      C1022   1.401       .  A
C1021      H1025   1.085   1_556  S
C1022      C1683   1.412       .  A
C1022      C1194   1.493   1_556  S
C1023      C1352   1.412       .  A
C1023      H1026   1.082       .  S
C1027      C1028   1.409       .  A
C1027      C1032   1.423       .  A
C1027      C1181   1.523       .  S
C1028      C1029   1.397       .  A
C1028      H1033   1.083       .  S
C1029      C1360   1.393       .  A
C1029      C1416   1.476       .  S
C1030      C1689   1.393       .  A
C1030      C1031   1.407       .  A
C1030      H1034   1.083       .  S
C1031      C1692   1.425       .  A
C1031      C1165   1.504       .  S
C1032      C1361   1.424       .  A
C1032      H1035   1.077       .  S
C1036      C1037   1.420       .  A
C1036      C1041   1.406       .  A
C1036      C1146   1.488       .  S
C1037      C1368   1.414       .  A
C1037      H1042   1.081       .  S
C1038      C1697   1.416   1_554  A
C1038      C1039   1.389       .  A
C1038      C1130   1.488       .  S
C1039      C1700   1.384   1_554  A
C1039      H1043   1.083       .  S
C1040      C1369   1.385       .  A
C1040      C1041   1.394       .  A
C1040      C1062   1.459       .  S
C1041      H1044   1.084       .  S
O1045     Mg1047   2.121       .  S
O1045     Mg1383   2.150       .  S
O1045      C1080   1.237       .  S
C1046      O1083   1.268       .  A
Mg1047     O3386   2.168       .  S
Mg1047     O1421   2.274       .  S
Mg1047     O3067   2.226       .  S
Mg1047     O3038   2.295       .  S
O1048     Mg3400   2.159       .  S
O1048     Mg1073   2.123       .  S
O1048      C1069   1.234       .  S
O1049      C1080   1.272       .  A
C1050      O1052   1.274       .  A
C1050      O1064   1.276       .  A
O1051      C1079   1.271       .  A
O1051     Mg1053   2.300       .  S
O1052     Mg1084   2.271       .  S
Mg1053     O1705   2.149   1_554  S
Mg1053     O1059   2.158       .  S
Mg1053     O1067   2.271       .  S
Mg1053     O1715   2.265   1_554  S
C1054      O1092   1.271       .  A
C1054      O1060   1.273       .  A
O1055      C1062   1.263       .  A
O1055     Mg1383   2.265       .  S
H1056      C1069   1.081       .  S
C1057      H1082   1.081       .  S
C1057      O1071   1.235       .  S
C1057      O1072   1.269       .  A
O1058     Mg3027   2.292   1_455  S
O1060     Mg1420   2.306   1_455  S
C1061      C1655   1.491       .  S
C1061      O1074   1.275       .  A
C1061      O1066   1.277       .  A
C1062      O1089   1.269       .  A
Mg1063     O1070   2.138       .  S
Mg1063     O1401   2.159       .  S
Mg1063     O1394   2.310       .  S
Mg1063     O1065   2.290       .  S
Mg1063     O1092   2.234       .  S
O1064     Mg1723   2.312   1_554  S
O1065      C3049   1.268   1_455  A
O1066     Mg1733   2.318   1_554  S
O1067      C1086   1.268       .  A
O1068      C1088   1.276       .  A
C1069      O3045   1.268       .  A
O1070     Mg1414   2.157       .  S
O1070      C1081   1.232       .  S
O1071     Mg1723   2.158   1_554  S
O1071     Mg1090   2.164   1_455  S
O1072     Mg1084   2.297       .  S
Mg1073     O1396   2.317       .  S
O1074     Mg3070   2.284       .  S
H1075      C1080   1.081       .  S
O1076     Mg3687   2.167   1_454  S
O1076      C3059   1.237   1_455  S
H1077      C3059   1.081   1_455  S
H1078      C1081   1.081       .  S
C1079      H3057   1.081       .  S
C1079      O3056   1.237       .  S
O1083     Mg3070   2.296       .  S
Mg1084     O1730   2.157   1_554  S
C1086      C1689   1.476       .  S
C1086      O1091   1.270   1_554  A
O1087      C1088   1.267       .  A
O1087     Mg3027   2.224   1_455  S
Mg1090     O3688   2.159   1_554  S
Mg1090     O1720   2.305   1_655  S
Mg1090     O3054   2.281       .  S
Mg1090     O3063   2.298       .  S
O1091     Mg1707   2.272       .  S
C1093      C3074   1.538       .  S
C1093      C3079   1.537       .  S
C1093      C1097   1.536       .  S
C1093      C1277   1.550       .  S
C1094      C3073   1.538       .  S
C1094      H1101   1.086       .  S
C1094      C1095   1.359       .  D
C1095      C1096   1.555       .  S
C1095      C1290   1.496       .  S
C1096      C1100   1.556       .  S
C1096      C3078   1.558       .  S
C1096      H1102   1.100       .  S
C1097      H1103   1.086       .  S
C1097      C1098   1.379       .  D
C1098      C3076   1.558   1_455  S
C1098      C1197   1.524       .  S
C1099      C3073   1.538       .  S
C1099      H1104   1.081       .  S
C1099      C1100   1.368       .  D
C1100      C1178   1.502       .  S
C1105      C1109   1.536       .  S
C1105      C1133   1.551       .  S
C1106      H1113   1.081       .  S
C1106      C1107   1.375       .  D
C1107      C1108   1.559       .  S
C1107      C1309   1.516       .  S
C1108      C1112   1.542       .  S
C1108      H1114   1.107       .  S
C1109      H1115   1.084       .  S
C1109      C1110   1.364       .  D
C1110      C1213   1.491       .  S
C1111      H1116   1.085       .  S
C1111      C1112   1.363       .  D
C1112      C1226   1.492       .  S
C1117      C1118   1.526       .  S
C1117      C1123   1.540       .  S
C1117      C1121   1.543       .  S
C1117      C1261   1.560       .  S
C1118      H1125   1.079       .  S
C1118      C1119   1.357       .  D
C1119      C1120   1.550       .  S
C1119      C1245   1.487       .  S
C1120      C1124   1.548       .  S
C1120      C1122   1.562       .  S
C1120      H1126   1.093       .  S
C1121      H1127   1.075       .  S
C1121      C1122   1.385       .  D
C1122      C1149   1.541       .  S
C1123      H1128   1.084       .  S
C1123      C1124   1.367       .  D
C1124      C1162   1.510       .  S
C1129      C1130   1.397       .  A
C1129      C1134   1.412       .  A
C1129      H1136   1.085       .  S
C1130      C1131   1.422       .  A
C1131      C1132   1.402       .  A
C1131      C1798   1.524   1_554  S
C1132      C1133   1.411       .  A
C1132      H1137   1.079   1_565  S
C1133      C1134   1.427       .  A
C1134      C1135   1.512       .  S
C1135      F1139   1.385       .  S
C1135      F1140   1.381       .  S
C1135      F1141   1.379       .  S
C1138      C1461   1.524       .  S
C1138      F1142   1.383       .  S
C1138      F1143   1.380       .  S
C1138      F1144   1.377       .  S
C1145      C1146   1.400       .  A
C1145      C1150   1.418       .  A
C1145      H1152   1.083       .  S
C1146      C1147   1.402       .  A
C1147      C1148   1.404       .  A
C1147      C1154   1.517       .  S
C1148      C1149   1.422       .  A
C1148      H1153   1.077       .  S
C1149      C1150   1.442       .  A
C1150      C1151   1.521       .  S
C1151      F1155   1.386       .  S
C1151      F1156   1.381       .  S
C1151      F1157   1.377       .  S
C1154      F1158   1.379       .  S
C1154      F1159   1.382       .  S
C1154      F1160   1.384       .  S
C1161      C1162   1.404       .  A
C1161      C1166   1.409       .  A
C1161      H1168   1.082       .  S
C1162      C1163   1.425       .  A
C1163      C1164   1.412       .  A
C1163      C1170   1.512       .  S
C1164      C1165   1.404       .  A
C1164      H1169   1.084       .  S
C1165      C1166   1.425       .  A
C1166      C1167   1.518       .  S
C1167      F1171   1.385       .  S
C1167      F1172   1.383       .  S
C1167      F1173   1.383       .  S
C1170      F1174   1.381       .  S
C1170      F1175   1.380       .  S
C1170      F1176   1.385       .  S
C1177      C1178   1.406       .  A
C1177      C1182   1.424       .  A
C1177      H1184   1.083       .  S
C1178      C1179   1.413       .  A
C1179      C1180   1.405       .  A
C1179      C3166   1.517       .  S
C1180      C1181   1.414       .  A
C1180      H1185   1.082       .  S
C1181      C1182   1.431       .  A
C1182      C1183   1.518       .  S
C1183      F1187   1.385       .  S
C1183      F1188   1.383       .  S
C1183      F1189   1.382       .  S
C1186      C3159   1.517   1_455  S
C1186      F1190   1.385       .  S
C1186      F1191   1.383       .  S
C1186      F1192   1.372       .  S
C1193      C1194   1.399       .  A
C1193      C1198   1.413       .  A
C1193      H1200   1.083   1_554  S
C1194      C1195   1.414       .  A
C1195      C1196   1.410       .  A
C1195      C1202   1.519       .  S
C1196      C1197   1.415       .  A
C1196      H1201   1.081       .  S
C1197      C1198   1.434       .  A
C1198      C3179   1.515   1_455  S
C1199      C3178   1.515       .  S
C1199      F1203   1.383   1_554  S
C1199      F1204   1.381       .  S
C1199      F1205   1.369       .  S
C1202      F1206   1.382       .  S
C1202      F1207   1.382       .  S
C1202      F1208   1.384       .  S
C1209      C1210   1.399       .  A
C1209      C1214   1.405       .  A
C1209      H1216   1.083       .  S
C1210      C1211   1.422       .  A
C1211      C1212   1.409       .  A
C1211      C1218   1.520       .  S
C1212      C1213   1.401       .  A
C1212      H1217   1.083       .  S
C1213      C1214   1.417       .  A
C1214      C1215   1.505       .  S
C1215      F1219   1.375       .  S
C1215      F1220   1.381       .  S
C1215      F1221   1.385       .  S
C1218      F1222   1.380       .  S
C1218      F1223   1.384       .  S
C1218      F1224   1.381       .  S
C1225      C1226   1.404       .  A
C1225      C1230   1.398       .  A
C1225      H1232   1.085       .  S
C1226      C1227   1.419       .  A
C1227      C1228   1.415       .  A
C1227      C1234   1.517       .  S
C1228      C1229   1.408       .  A
C1228      H1233   1.083       .  S
C1229      C1230   1.419       .  A
C1230      C1891   1.522       .  S
C1231      C1560   1.522       .  S
C1231      F1235   1.384       .  S
C1231      F1236   1.383       .  S
C1231      F1237   1.382       .  S
C1234      F1238   1.382       .  S
C1234      F1239   1.380       .  S
C1234      F1240   1.385       .  S
C1241      C1242   1.400       .  A
C1241      C1246   1.400       .  A
C1241      H1248   1.076       .  S
C1242      C1243   1.421       .  A
C1243      C1244   1.416       .  A
C1243      C1250   1.520       .  S
C1244      C1245   1.405       .  A
C1244      H1249   1.083       .  S
C1245      C1246   1.421       .  A
C1246      C1247   1.519       .  S
C1247      F1251   1.384       .  S
C1247      F1252   1.382       .  S
C1247      F1253   1.371       .  S
C1250      F1254   1.383       .  S
C1250      F1255   1.381       .  S
C1250      F1256   1.384       .  S
C1257      C1258   1.405       .  A
C1257      C1262   1.404       .  A
C1257      H1264   1.082       .  S
C1258      C1259   1.415       .  A
C1259      C1260   1.413       .  A
C1259      C1266   1.521       .  S
C1260      C1261   1.422       .  A
C1260      H1265   1.073       .  S
C1261      C1262   1.434       .  A
C1262      C1263   1.530       .  S
C1263      F1267   1.382       .  S
C1263      F1268   1.378       .  S
C1263      F1269   1.374       .  S
C1266      F1270   1.384       .  S
C1266      F1271   1.381       .  S
C1266      F1272   1.385       .  S
C1273      C1274   1.400       .  A
C1273      C1278   1.407       .  A
C1273      H1280   1.085       .  S
C1274      C1275   1.416       .  A
C1275      C1276   1.404       .  A
C1275      C1282   1.518       .  S
C1276      C1277   1.412       .  A
C1276      H1281   1.083       .  S
C1277      C1278   1.427       .  A
C1278      C1279   1.512       .  S
C1279      F1283   1.385       .  S
C1279      F1284   1.381       .  S
C1279      F1285   1.377       .  S
C1282      F1286   1.383       .  S
C1282      F1287   1.383       .  S
C1282      F1288   1.384       .  S
C1289      C1290   1.406       .  A
C1289      C1294   1.421       .  A
C1289      H1296   1.083       .  S
C1290      C1291   1.427       .  A
C1291      C1292   1.398       .  A
C1291      C3278   1.525       .  S
C1292      C1293   1.401       .  A
C1292      H1297   1.086       .  S
C1293      C1294   1.424       .  A
C1294      C1295   1.517       .  S
C1295      F1299   1.385       .  S
C1295      F1300   1.380       .  S
C1295      F1301   1.381       .  S
C1298      C3271   1.524   1_455  S
C1298      F1302   1.383       .  S
C1298      F1303   1.377       .  S
C1298      F1304   1.385       .  S
C1305      C1306   1.400       .  A
C1305      C1310   1.405       .  A
C1305      H1312   1.085       .  S
C1306      C1307   1.415       .  A
C1307      C1308   1.417       .  A
C1307      C1644   1.518       .  S
C1308      C1309   1.412       .  A
C1308      H1313   1.076       .  S
C1309      C1310   1.429       .  A
C1310      C1311   1.521       .  S
C1311      F1315   1.384       .  S
C1311      F1316   1.381       .  S
C1311      F1317   1.383       .  S
C1314      C1967   1.518   1_554  S
C1314      F1318   1.381       .  S
C1314      F1319   1.382       .  S
C1314      F1320   1.385       .  S
C1321      C1652   1.413       .  A
C1321      C1326   1.406       .  A
C1321      C1636   1.495       .  S
C1322      C1323   1.414       .  A
C1322      H1327   1.080       .  S
C1323      C1324   1.414       .  A
C1323      C1623   1.501       .  S
C1324      H1328   1.084       .  S
C1325      C1654   1.401       .  A
C1325      C1326   1.402       .  A
C1325      C1721   1.490       .  S
C1326      H1329   1.082       .  S
C1330      C1331   1.416       .  A
C1330      C1335   1.405       .  A
C1330      C1604   1.482       .  S
C1331      C1662   1.414       .  A
C1331      H1336   1.081       .  S
C1332      C1333   1.401       .  A
C1332      C1588   1.499       .  S
C1333      H1337   1.085       .  S
C1334      C1663   1.388       .  A
C1334      C1335   1.390       .  A
C1334      C1384   1.456       .  S
C1335      H1338   1.084       .  S
C1339      C1340   1.408       .  A
C1339      C1344   1.407       .  A
C1339      C1559   1.487       .  S
C1340      H1345   1.081       .  S
C1341      C1670   1.406       .  A
C1341      C1342   1.411       .  A
C1341      C1572   1.496       .  S
C1342      C1673   1.408       .  A
C1342      H1346   1.084       .  S
C1343      C1344   1.400       .  A
C1343      C1380   1.485       .  S
C1344      H1347   1.084       .  S
C1348      C1349   1.400       .  A
C1348      C1353   1.415       .  A
C1348      C1540   1.486       .  S
C1349      C1350   1.392       .  A
C1349      H1354   1.082       .  S
C1350      C1681   1.399       .  A
C1350      C1418   1.461       .  S
C1351      C1352   1.402       .  A
C1351      H1355   1.085       .  S
C1352      C1524   1.494       .  S
C1353      C1682   1.411       .  A
C1353      H1356   1.083       .  S
C1357      C1358   1.408       .  A
C1357      C1362   1.422       .  A
C1357      C1511   1.519       .  S
C1358      C1359   1.397       .  A
C1358      H1363   1.083       .  S
C1359      C1690   1.393       .  A
C1359      C1746   1.476       .  S
C1360      C1361   1.407       .  A
C1360      H1364   1.083       .  S
C1361      C1495   1.502       .  S
C1362      C1691   1.423       .  A
C1362      H1365   1.078       .  S
C1366      C1367   1.421       .  A
C1366      C1371   1.407       .  A
C1366      C1476   1.491       .  S
C1367      C1698   1.415       .  A
C1367      H1372   1.081       .  S
C1368      C1369   1.390       .  A
C1368      C1460   1.486       .  S
C1369      H1373   1.083       .  S
C1370      C1699   1.385       .  A
C1370      C1371   1.394       .  A
C1370      C1392   1.460       .  S
C1371      H1374   1.084       .  S
O1375     Mg1377   2.123       .  S
O1375     Mg1713   2.151       .  S
O1375      C1410   1.237       .  S
C1376      O1413   1.269       .  A
Mg1377     O3716   2.168       .  S
Mg1377     O1751   2.272       .  S
Mg1377     O3397   2.224       .  S
Mg1377     O3368   2.295       .  S
O1378     Mg3730   2.158       .  S
O1378     Mg1403   2.123       .  S
O1378      C1399   1.234       .  S
O1379      C1410   1.272       .  A
C1380      O1382   1.274       .  A
C1380      O1394   1.276       .  A
O1381      C1409   1.271       .  A
O1381     Mg1383   2.300       .  S
O1382     Mg1414   2.272       .  S
Mg1383     O1389   2.156       .  S
Mg1383     O1397   2.266       .  S
C1384      O1422   1.271       .  A
C1384      O1390   1.271       .  A
O1385      C1392   1.264       .  A
O1385     Mg1713   2.269       .  S
H1386      C1399   1.081       .  S
C1387      H1412   1.081       .  S
C1387      O1401   1.235       .  S
C1387      O1402   1.269       .  A
O1388     Mg3357   2.295   1_455  S
O1390     Mg1750   2.294   1_455  S
C1391      O1404   1.274       .  A
C1391      O1396   1.277       .  A
C1392      O1419   1.269       .  A
Mg1393     O1400   2.134       .  S
Mg1393     O1731   2.161       .  S
Mg1393     O1724   2.312       .  S
Mg1393     O1395   2.289       .  S
Mg1393     O1422   2.230       .  S
O1395      C3379   1.268   1_455  A
O1397      C1416   1.267       .  A
O1398      C1418   1.274       .  A
C1399      O3375   1.268       .  A
O1400     Mg1744   2.155       .  S
O1400      C1411   1.232       .  S
O1401     Mg1420   2.162   1_455  S
O1402     Mg1414   2.297       .  S
Mg1403     O1726   2.314       .  S
O1404     Mg3400   2.278       .  S
H1405      C1410   1.081       .  S
O1406     Mg3027   2.170   1_455  S
O1406      C3389   1.237   1_455  S
H1407      C3389   1.081   1_455  S
H1408      C1411   1.081       .  S
C1409      H3387   1.081       .  S
C1409      O3386   1.237       .  S
O1413     Mg3400   2.297       .  S
C1416      O1421   1.271       .  A
O1417      C1418   1.267       .  A
O1417     Mg3357   2.227   1_455  S
Mg1420     O3028   2.158       .  S
Mg1420     O3384   2.274       .  S
Mg1420     O3393   2.299       .  S
C1423      C3404   1.538       .  S
C1423      C3409   1.537       .  S
C1423      C1427   1.538       .  S
C1423      C1607   1.552       .  S
C1424      C3403   1.538       .  S
C1424      H1431   1.086       .  S
C1424      C1425   1.359       .  D
C1425      C1426   1.554       .  S
C1425      C1620   1.495       .  S
C1426      C1430   1.553       .  S
C1426      C3408   1.558       .  S
C1426      H1432   1.100       .  S
C1427      H1433   1.085       .  S
C1427      C1428   1.380       .  D
C1428      C3406   1.559   1_455  S
C1428      C1527   1.526       .  S
C1429      C3403   1.537       .  S
C1429      H1434   1.079       .  S
C1429      C1430   1.367       .  D
C1430      C1508   1.500       .  S
C1435      C1439   1.534       .  S
C1435      C1463   1.550       .  S
C1436      H1443   1.081       .  S
C1436      C1437   1.375       .  D
C1437      C1438   1.560       .  S
C1437      C1639   1.517       .  S
C1438      C1442   1.542       .  S
C1438      H1444   1.107       .  S
C1439      H1445   1.085       .  S
C1439      C1440   1.364       .  D
C1440      C1543   1.489       .  S
C1441      H1446   1.086       .  S
C1441      C1442   1.362       .  D
C1442      C1556   1.491       .  S
C1447      C1448   1.526       .  S
C1447      C1453   1.537       .  S
C1447      C1451   1.541       .  S
C1447      C1591   1.556       .  S
C1448      H1455   1.079       .  S
C1448      C1449   1.358       .  D
C1449      C1450   1.551       .  S
C1449      C1575   1.487       .  S
C1450      C1454   1.550       .  S
C1450      C1452   1.564       .  S
C1450      H1456   1.093       .  S
C1451      H1457   1.076       .  S
C1451      C1452   1.383       .  D
C1452      C1479   1.543       .  S
C1453      H1458   1.085       .  S
C1453      C1454   1.366       .  D
C1454      C1492   1.509       .  S
C1459      C1460   1.396       .  A
C1459      C1464   1.411       .  A
C1459      H1466   1.085       .  S
C1460      C1461   1.421       .  A
C1461      C1462   1.401       .  A
C1462      C1463   1.412       .  A
C1462      H1467   1.078   1_565  S
C1463      C1464   1.429       .  A
C1464      C1465   1.514       .  S
C1465      F1469   1.385       .  S
C1465      F1470   1.382       .  S
C1465      F1471   1.378       .  S
C1468      C1791   1.523       .  S
C1468      F1472   1.383       .  S
C1468      F1473   1.380       .  S
C1468      F1474   1.378       .  S
C1475      C1476   1.401       .  A
C1475      C1480   1.418       .  A
C1475      H1482   1.083       .  S
C1476      C1477   1.403       .  A
C1477      C1478   1.404       .  A
C1477      C1484   1.518       .  S
C1478      C1479   1.424       .  A
C1478      H1483   1.077       .  S
C1479      C1480   1.441       .  A
C1480      C1481   1.520       .  S
C1481      F1485   1.386       .  S
C1481      F1486   1.381       .  S
C1481      F1487   1.378       .  S
C1484      F1488   1.378       .  S
C1484      F1489   1.382       .  S
C1484      F1490   1.385       .  S
C1491      C1492   1.403       .  A
C1491      C1496   1.408       .  A
C1491      H1498   1.081       .  S
C1492      C1493   1.425       .  A
C1493      C1494   1.412       .  A
C1493      C1500   1.513       .  S
C1494      C1495   1.404       .  A
C1494      H1499   1.084       .  S
C1495      C1496   1.424       .  A
C1496      C1497   1.518       .  S
C1497      F1501   1.384       .  S
C1497      F1502   1.383       .  S
C1497      F1503   1.382       .  S
C1500      F1504   1.382       .  S
C1500      F1505   1.380       .  S
C1500      F1506   1.385       .  S
C1507      C1508   1.406       .  A
C1507      C1512   1.423       .  A
C1507      H1514   1.083       .  S
C1508      C1509   1.413       .  A
C1509      C1510   1.404       .  A
C1509      C3496   1.517       .  S
C1510      C1511   1.412       .  A
C1510      H1515   1.082       .  S
C1511      C1512   1.429       .  A
C1512      C1513   1.517       .  S
C1513      F1517   1.385       .  S
C1513      F1518   1.383       .  S
C1513      F1519   1.382       .  S
C1516      C3489   1.516   1_455  S
C1516      F1520   1.385       .  S
C1516      F1521   1.383       .  S
C1516      F1522   1.372       .  S
C1523      C1524   1.399       .  A
C1523      C1528   1.413       .  A
C1523      H1530   1.082       .  S
C1524      C1525   1.414       .  A
C1525      C1526   1.411       .  A
C1525      C1532   1.519       .  S
C1526      C1527   1.415       .  A
C1526      H1531   1.081       .  S
C1527      C1528   1.434       .  A
C1528      C3509   1.515   1_455  S
C1529      C3508   1.515       .  S
C1529      F1533   1.382       .  S
C1529      F1534   1.381       .  S
C1529      F1535   1.369       .  S
C1532      F1536   1.381       .  S
C1532      F1537   1.382       .  S
C1532      F1538   1.385       .  S
C1539      C1540   1.400       .  A
C1539      C1544   1.405       .  A
C1539      H1546   1.083       .  S
C1540      C1541   1.422       .  A
C1541      C1542   1.408       .  A
C1541      C1548   1.520       .  S
C1542      C1543   1.400       .  A
C1542      H1547   1.083       .  S
C1543      C1544   1.416       .  A
C1544      C1545   1.506       .  S
C1545      F1549   1.375       .  S
C1545      F1550   1.380       .  S
C1545      F1551   1.385       .  S
C1548      F1552   1.380       .  S
C1548      F1553   1.384       .  S
C1548      F1554   1.381       .  S
C1555      C1556   1.405       .  A
C1555      C1560   1.398       .  A
C1555      H1562   1.085       .  S
C1556      C1557   1.418       .  A
C1557      C1558   1.414       .  A
C1557      C1564   1.517       .  S
C1558      C1559   1.407       .  A
C1558      H1563   1.083       .  S
C1559      C1560   1.418       .  A
C1561      C1890   1.523       .  S
C1561      F1565   1.385       .  S
C1561      F1566   1.384       .  S
C1561      F1567   1.382       .  S
C1564      F1568   1.382       .  S
C1564      F1569   1.380       .  S
C1564      F1570   1.385       .  S
C1571      C1572   1.400       .  A
C1571      C1576   1.399       .  A
C1571      H1578   1.071       .  S
C1572      C1573   1.422       .  A
C1573      C1574   1.416       .  A
C1573      C1580   1.520       .  S
C1574      C1575   1.405       .  A
C1574      H1579   1.082       .  S
C1575      C1576   1.421       .  A
C1576      C1577   1.520       .  S
C1577      F1581   1.383       .  S
C1577      F1582   1.383       .  S
C1577      F1583   1.371       .  S
C1580      F1584   1.383       .  S
C1580      F1585   1.381       .  S
C1580      F1586   1.384       .  S
C1587      C1588   1.405       .  A
C1587      C1592   1.404       .  A
C1587      H1594   1.082       .  S
C1588      C1589   1.414       .  A
C1589      C1590   1.410       .  A
C1589      C1596   1.521       .  S
C1590      C1591   1.421       .  A
C1590      H1595   1.074       .  S
C1591      C1592   1.433       .  A
C1592      C1593   1.529       .  S
C1593      F1597   1.381       .  S
C1593      F1598   1.379       .  S
C1593      F1599   1.374       .  S
C1596      F1600   1.384       .  S
C1596      F1601   1.381       .  S
C1596      F1602   1.385       .  S
C1603      C1604   1.399       .  A
C1603      C1608   1.406       .  A
C1603      H1610   1.085       .  S
C1604      C1605   1.417       .  A
C1605      C1606   1.405       .  A
C1605      C1612   1.519       .  S
C1606      C1607   1.412       .  A
C1606      H1611   1.083       .  S
C1607      C1608   1.428       .  A
C1608      C1609   1.511       .  S
C1609      F1613   1.385       .  S
C1609      F1614   1.381       .  S
C1609      F1615   1.376       .  S
C1612      F1616   1.383       .  S
C1612      F1617   1.383       .  S
C1612      F1618   1.383       .  S
C1619      C1620   1.406       .  A
C1619      C1624   1.420       .  A
C1619      H1626   1.083       .  S
C1620      C1621   1.426       .  A
C1621      C1622   1.398       .  A
C1621      C3608   1.525       .  S
C1622      C1623   1.402       .  A
C1622      H1627   1.085       .  S
C1623      C1624   1.424       .  A
C1624      C1625   1.517       .  S
C1625      F1629   1.385       .  S
C1625      F1630   1.380       .  S
C1625      F1631   1.381       .  S
C1628      C3601   1.525   1_455  S
C1628      F1632   1.383       .  S
C1628      F1633   1.377       .  S
C1628      F1634   1.385       .  S
C1635      C1636   1.401       .  A
C1635      C1640   1.405       .  A
C1635      H1642   1.085       .  S
C1636      C1637   1.416       .  A
C1637      C1638   1.418       .  A
C1637      C1974   1.518       .  S
C1638      C1639   1.412       .  A
C1638      H1643   1.077       .  S
C1639      C1640   1.429       .  A
C1640      C1641   1.521       .  S
C1641      F1645   1.384       .  S
C1641      F1646   1.381       .  S
C1641      F1647   1.383       .  S
C1644      F1648   1.381       .  S
C1644      F1649   1.382       .  S
C1644      F1650   1.385       .  S
C1651      C1656   1.406   1_556  A
C1651      C1966   1.495       .  S
C1652      C1653   1.414       .  A
C1652      H1657   1.080       .  S
C1653      C1654   1.414       .  A
C1653      C1953   1.501       .  S
C1654      H1658   1.084       .  S
C1655      C1656   1.402       .  A
C1656      H1659   1.082   1_554  S
C1660      C1661   1.417       .  A
C1660      C1665   1.407       .  A
C1660      C1934   1.486       .  S
C1661      H1666   1.078       .  S
C1662      C1663   1.401       .  A
C1662      C1918   1.500       .  S
C1663      H1667   1.085       .  S
C1664      C1665   1.392       .  A
C1664      C1714   1.460       .  S
C1665      H1668   1.084       .  S
C1669      C1670   1.408       .  A
C1669      C1674   1.407       .  A
C1669      C1889   1.486       .  S
C1670      H1675   1.081       .  S
C1671      C1672   1.408       .  A
C1671      C1902   1.494       .  S
C1672      H1676   1.084       .  S
C1673      C1674   1.400       .  A
C1673      C1710   1.486       .  S
C1674      H1677   1.083       .  S
C1678      C1679   1.399       .  A
C1678      C1683   1.415       .  A
C1678      C1870   1.485       .  S
C1679      C1680   1.392       .  A
C1679      H1684   1.082       .  S
C1680      C1748   1.462       .  S
C1681      C1682   1.401       .  A
C1681      H1685   1.085       .  S
C1682      C1854   1.493       .  S
C1683      H1686   1.083       .  S
C1687      C1688   1.410       .  A
C1687      C1692   1.424   1_556  A
C1687      C1841   1.524       .  S
C1688      C1689   1.398   1_556  A
C1688      H1693   1.083       .  S
C1690      C1691   1.408       .  A
C1690      H1694   1.083       .  S
C1691      C1825   1.501       .  S
C1692      H1695   1.077       .  S
C1696      C1697   1.422       .  A
C1696      C1701   1.406       .  A
C1696      C1806   1.492       .  S
C1697      H1702   1.081       .  S
C1698      C1699   1.390       .  A
C1698      C1790   1.488       .  S
C1699      H1703   1.083       .  S
C1700      C1701   1.394       .  A
C1700      C1722   1.458       .  S
C1701      H1704   1.084       .  S
O1705     Mg1707   2.119       .  S
O1705      C1740   1.237       .  S
C1706      O1743   1.269       .  A
Mg1707     O3056   2.167   1_556  S
Mg1707     O3727   2.220       .  S
Mg1707     O3698   2.295       .  S
O1708     Mg3070   2.159   1_556  S
O1708     Mg1733   2.123       .  S
O1708      C1729   1.234       .  S
O1709      C1740   1.272       .  A
C1710      O1712   1.274       .  A
C1710      O1724   1.276       .  A
O1711      C1739   1.271       .  A
O1711     Mg1713   2.301       .  S
O1712     Mg1744   2.280       .  S
Mg1713     O1719   2.157       .  S
Mg1713     O1727   2.269       .  S
C1714      O1752   1.271       .  A
C1714      O1720   1.273   1_556  A
O1715      C1722   1.264       .  A
H1716      C1729   1.081       .  S
C1717      H1742   1.082       .  S
C1717      O1731   1.235       .  S
C1717      O1732   1.269       .  A
O1718     Mg3687   2.296   1_455  S
C1721      O1734   1.275       .  A
C1721      O1726   1.276       .  A
C1722      O1749   1.270       .  A
Mg1723     O1730   2.138       .  S
Mg1723     O1725   2.292       .  S
Mg1723     O1752   2.236       .  S
O1725      C3709   1.268   1_455  A
O1727      C1746   1.268       .  A
O1728      C1748   1.275       .  A
C1729      O3705   1.268       .  A
O1730      C1741   1.232       .  S
O1731     Mg1750   2.165   1_455  S
O1732     Mg1744   2.297       .  S
O1734     Mg3730   2.282       .  S
H1735      C1740   1.081       .  S
O1736     Mg3357   2.167   1_455  S
O1736      C3719   1.237   1_455  S
H1737      C3719   1.081       .  S
H1738      C1741   1.081       .  S
C1739      H3717   1.081       .  S
C1739      O3716   1.237       .  S
O1743     Mg3730   2.297       .  S
C1746      O1751   1.270       .  A
O1747      C1748   1.266       .  A
O1747     Mg3687   2.220   1_455  S
Mg1750     O3358   2.161       .  S
Mg1750     O3714   2.274       .  S
Mg1750     O3723   2.296       .  S
C1753      C3734   1.538       .  S
C1753      C3739   1.537       .  S
C1753      C1757   1.537       .  S
C1753      C1937   1.551       .  S
C1754      C3733   1.539       .  S
C1754      H1761   1.086       .  S
C1754      C1755   1.359       .  D
C1755      C1756   1.555       .  S
C1755      C1950   1.496       .  S
C1756      C1760   1.558       .  S
C1756      C3738   1.557       .  S
C1756      H1762   1.100       .  S
C1757      H1763   1.086       .  S
C1757      C1758   1.379       .  D
C1758      C3736   1.559   1_455  S
C1758      C1857   1.525       .  S
C1759      C3733   1.537       .  S
C1759      H1764   1.081       .  S
C1759      C1760   1.367       .  D
C1760      C1838   1.505       .  S
C1765      C1769   1.536       .  S
C1765      C1793   1.550       .  S
C1766      H1773   1.081       .  S
C1766      C1767   1.375       .  D
C1767      C1768   1.560       .  S
C1767      C1969   1.517       .  S
C1768      C1772   1.542       .  S
C1768      H1774   1.107       .  S
C1769      H1775   1.084       .  S
C1769      C1770   1.364       .  D
C1770      C1873   1.490       .  S
C1771      H1776   1.085       .  S
C1771      C1772   1.362       .  D
C1772      C1886   1.490       .  S
C1777      C1778   1.525       .  S
C1777      C1783   1.537       .  S
C1777      C1781   1.542       .  S
C1777      C1921   1.556       .  S
C1778      H1785   1.080       .  S
C1778      C1779   1.357       .  D
C1779      C1780   1.550       .  S
C1779      C1905   1.486       .  S
C1780      C1784   1.549       .  S
C1780      C1782   1.564       .  S
C1780      H1786   1.093       .  S
C1781      H1787   1.076       .  S
C1781      C1782   1.385       .  D
C1782      C1809   1.542       .  S
C1783      H1788   1.085       .  S
C1783      C1784   1.366       .  D
C1784      C1822   1.508       .  S
C1789      C1790   1.397       .  A
C1789      C1794   1.412       .  A
C1789      H1796   1.085       .  S
C1790      C1791   1.421       .  A
C1791      C1792   1.402       .  A
C1792      C1793   1.411       .  A
C1792      H1797   1.079   1_565  S
C1793      C1794   1.427       .  A
C1794      C1795   1.511       .  S
C1795      F1799   1.385       .  S
C1795      F1800   1.382       .  S
C1795      F1801   1.379       .  S
C1798      F1802   1.383       .  S
C1798      F1803   1.380       .  S
C1798      F1804   1.377       .  S
C1805      C1806   1.402       .  A
C1805      C1810   1.419       .  A
C1805      H1812   1.083       .  S
C1806      C1807   1.403       .  A
C1807      C1808   1.404       .  A
C1807      C1814   1.517       .  S
C1808      C1809   1.422       .  A
C1808      H1813   1.078       .  S
C1809      C1810   1.442       .  A
C1810      C1811   1.520       .  S
C1811      F1815   1.385       .  S
C1811      F1816   1.381       .  S
C1811      F1817   1.377       .  S
C1814      F1818   1.378       .  S
C1814      F1819   1.382       .  S
C1814      F1820   1.384       .  S
C1821      C1822   1.403       .  A
C1821      C1826   1.407       .  A
C1821      H1828   1.082       .  S
C1822      C1823   1.425       .  A
C1823      C1824   1.412       .  A
C1823      C1830   1.513       .  S
C1824      C1825   1.404       .  A
C1824      H1829   1.084       .  S
C1825      C1826   1.424       .  A
C1826      C1827   1.518       .  S
C1827      F1831   1.384       .  S
C1827      F1832   1.383       .  S
C1827      F1833   1.383       .  S
C1830      F1834   1.381       .  S
C1830      F1835   1.381       .  S
C1830      F1836   1.385       .  S
C1837      C1838   1.407       .  A
C1837      C1842   1.425       .  A
C1837      H1844   1.083       .  S
C1838      C1839   1.414       .  A
C1839      C1840   1.405       .  A
C1839      C3826   1.516       .  S
C1840      C1841   1.413       .  A
C1840      H1845   1.082       .  S
C1841      C1842   1.431       .  A
C1842      C1843   1.517       .  S
C1843      F1847   1.385       .  S
C1843      F1848   1.384       .  S
C1843      F1849   1.381       .  S
C1846      C3819   1.516   1_455  S
C1846      F1850   1.385       .  S
C1846      F1851   1.383       .  S
C1846      F1852   1.373       .  S
C1853      C1854   1.399       .  A
C1853      C1858   1.413       .  A
C1853      H1860   1.083       .  S
C1854      C1855   1.413       .  A
C1855      C1856   1.410       .  A
C1855      C1862   1.519       .  S
C1856      C1857   1.415       .  A
C1856      H1861   1.081       .  S
C1857      C1858   1.434       .  A
C1858      C3839   1.515   1_455  S
C1859      C3838   1.515       .  S
C1859      F1863   1.383       .  S
C1859      F1864   1.380       .  S
C1859      F1865   1.368       .  S
C1862      F1866   1.382       .  S
C1862      F1867   1.382       .  S
C1862      F1868   1.384       .  S
C1869      C1870   1.400       .  A
C1869      C1874   1.406       .  A
C1869      H1876   1.083       .  S
C1870      C1871   1.422       .  A
C1871      C1872   1.408       .  A
C1871      C1878   1.520       .  S
C1872      C1873   1.400       .  A
C1872      H1877   1.083       .  S
C1873      C1874   1.417       .  A
C1874      C1875   1.506       .  S
C1875      F1879   1.375       .  S
C1875      F1880   1.381       .  S
C1875      F1881   1.385       .  S
C1878      F1882   1.380       .  S
C1878      F1883   1.384       .  S
C1878      F1884   1.381       .  S
C1885      C1886   1.404       .  A
C1885      C1890   1.398       .  A
C1885      H1892   1.085       .  S
C1886      C1887   1.418       .  A
C1887      C1888   1.414       .  A
C1887      C1894   1.517       .  S
C1888      C1889   1.407       .  A
C1888      H1893   1.083       .  S
C1889      C1890   1.418       .  A
C1891      F1895   1.385       .  S
C1891      F1896   1.383   1_554  S
C1891      F1897   1.382       .  S
C1894      F1898   1.382       .  S
C1894      F1899   1.380       .  S
C1894      F1900   1.385       .  S
C1901      C1902   1.400       .  A
C1901      C1906   1.400       .  A
C1901      H1908   1.075   1_556  S
C1902      C1903   1.421       .  A
C1903      C1904   1.416       .  A
C1903      C1910   1.519       .  S
C1904      C1905   1.405       .  A
C1904      H1909   1.083       .  S
C1905      C1906   1.421       .  A
C1906      C1907   1.520       .  S
C1907      F1911   1.383       .  S
C1907      F1912   1.382       .  S
C1907      F1913   1.371       .  S
C1910      F1914   1.383       .  S
C1910      F1915   1.381       .  S
C1910      F1916   1.384       .  S
C1917      C1918   1.405       .  A
C1917      C1922   1.404       .  A
C1917      H1924   1.082       .  S
C1918      C1919   1.413       .  A
C1919      C1920   1.410       .  A
C1919      C1926   1.520       .  S
C1920      C1921   1.421       .  A
C1920      H1925   1.075       .  S
C1921      C1922   1.435       .  A
C1922      C1923   1.532       .  S
C1923      F1927   1.382       .  S
C1923      F1928   1.377       .  S
C1923      F1929   1.374       .  S
C1926      F1930   1.383       .  S
C1926      F1931   1.382       .  S
C1926      F1932   1.385       .  S
C1933      C1934   1.401       .  A
C1933      C1938   1.408       .  A
C1933      H1940   1.085       .  S
C1934      C1935   1.418       .  A
C1935      C1936   1.404       .  A
C1935      C1942   1.518       .  S
C1936      C1937   1.411       .  A
C1936      H1941   1.083       .  S
C1937      C1938   1.427       .  A
C1938      C1939   1.513       .  S
C1939      F1943   1.385       .  S
C1939      F1944   1.382       .  S
C1939      F1945   1.378       .  S
C1942      F1946   1.383       .  S
C1942      F1947   1.383       .  S
C1942      F1948   1.383       .  S
C1949      C1950   1.406       .  A
C1949      C1954   1.420       .  A
C1949      H1956   1.083       .  S
C1950      C1951   1.428       .  A
C1951      C1952   1.399       .  A
C1951      C3938   1.525       .  S
C1952      C1953   1.401       .  A
C1952      H1957   1.086       .  S
C1953      C1954   1.423       .  A
C1954      C1955   1.517       .  S
C1955      F1959   1.385       .  S
C1955      F1960   1.379       .  S
C1955      F1961   1.381       .  S
C1958      C3931   1.525   1_455  S
C1958      F1962   1.383       .  S
C1958      F1963   1.377       .  S
C1958      F1964   1.385       .  S
C1965      C1966   1.401       .  A
C1965      C1970   1.405       .  A
C1965      H1972   1.085       .  S
C1966      C1967   1.416       .  A
C1967      C1968   1.418       .  A
C1968      C1969   1.412       .  A
C1968      H1973   1.077       .  S
C1969      C1970   1.429       .  A
C1970      C1971   1.520       .  S
C1971      F1975   1.384       .  S
C1971      F1976   1.381       .  S
C1971      F1977   1.383       .  S
C1974      F1978   1.381       .  S
C1974      F1979   1.382       .  S
C1974      F1980   1.385       .  S
C1981      C2312   1.414       .  A
C1981      C1986   1.406       .  A
C1981      C2296   1.496       .  S
C1982      C2641   1.413   1_554  A
C1982      C1983   1.415       .  A
C1982      H1987   1.080       .  S
C1983      C1984   1.414       .  A
C1983      C2283   1.501       .  S
C1984      C2645   1.401       .  A
C1984      H1988   1.084       .  S
C1985      C2314   1.400       .  A
C1985      C1986   1.402       .  A
C1985      C2381   1.490       .  S
C1986      H1989   1.083       .  S
C1990      C1991   1.416       .  A
C1990      C1995   1.405       .  A
C1990      C2264   1.484       .  S
C1991      C2322   1.414       .  A
C1991      H1996   1.078       .  S
C1992      C2651   1.414   1_554  A
C1992      C1993   1.401       .  A
C1992      C2248   1.501       .  S
C1993      C2654   1.389   1_554  A
C1993      H1997   1.085       .  S
C1994      C2323   1.389       .  A
C1994      C1995   1.390       .  A
C1994      C2044   1.457       .  S
C1995      H1998   1.084       .  S
C1999      C2000   1.408       .  A
C1999      C2004   1.407       .  A
C1999      C2219   1.487       .  S
C2000      C2661   1.406   1_554  A
C2000      H2005   1.081       .  S
C2001      C2330   1.407       .  A
C2001      C2002   1.409       .  A
C2001      C2232   1.494       .  S
C2002      C2333   1.406       .  A
C2002      H2006   1.084       .  S
C2003      C2662   1.406   1_554  A
C2003      C2004   1.400       .  A
C2003      C2040   1.484       .  S
C2004      H2007   1.083       .  S
C2008      C2009   1.400       .  A
C2008      C2013   1.415       .  A
C2008      C2200   1.485       .  S
C2009      C2010   1.392       .  A
C2009      H2014   1.082       .  S
C2010      C2341   1.399       .  A
C2010      C2078   1.462       .  S
C2011      C2670   1.400       .  A
C2011      C2012   1.402       .  A
C2011      H2015   1.085   1_556  S
C2012      C2673   1.413       .  A
C2012      C2184   1.495   1_556  S
C2013      C2342   1.410       .  A
C2013      H2016   1.083       .  S
C2017      C2018   1.409       .  A
C2017      C2022   1.422       .  A
C2017      C2171   1.522       .  S
C2018      C2019   1.398       .  A
C2018      H2023   1.083       .  S
C2019      C2350   1.393       .  A
C2019      C2406   1.476       .  S
C2020      C2679   1.394       .  A
C2020      C2021   1.408       .  A
C2020      H2024   1.083       .  S
C2021      C2682   1.425       .  A
C2021      C2155   1.504       .  S
C2022      C2351   1.424       .  A
C2022      H2025   1.077       .  S
C2026      C2027   1.422       .  A
C2026      C2031   1.407       .  A
C2026      C2136   1.491       .  S
C2027      C2358   1.415       .  A
C2027      H2032   1.081       .  S
C2028      C2687   1.414   1_554  A
C2028      C2029   1.390       .  A
C2028      C2120   1.485       .  S
C2029      C2690   1.384   1_554  A
C2029      H2033   1.083       .  S
C2030      C2359   1.384       .  A
C2030      C2031   1.394       .  A
C2030      C2052   1.458       .  S
C2031      H2034   1.084       .  S
O2035     Mg2037   2.120       .  S
O2035     Mg2373   2.151       .  S
O2035      C2070   1.237       .  S
C2036      H3065   1.081       .  S
C2036      O3039   1.235       .  S
C2036      O2073   1.269   1_565  A
Mg2037     O2411   2.273       .  S
O2038     Mg2063   2.123       .  S
O2038      C2059   1.234       .  S
O2039      C2070   1.272       .  A
O2039     Mg3053   2.312       .  S
C2040      O2042   1.273       .  A
C2040      O2054   1.276       .  A
O2041      C2069   1.271       .  A
O2041     Mg2043   2.299       .  S
O2042     Mg2074   2.270       .  S
Mg2043     O2695   2.151   1_554  S
Mg2043     O2049   2.159       .  S
Mg2043     O2057   2.269       .  S
Mg2043     O2705   2.266   1_554  S
C2044      O2082   1.271       .  A
C2044      O2050   1.272       .  A
O2045      C2052   1.263       .  A
O2045     Mg2373   2.265       .  S
H2046      C2059   1.081       .  S
C2047      H2072   1.081       .  S
C2047      O2061   1.235       .  S
C2047      O2062   1.269       .  A
O2048      C3061   1.266       .  A
O2049     Mg3713   2.139   1_554  S
O2049      C3026   1.235       .  S
O2050     Mg2410   2.298       .  S
C2051      C2645   1.492       .  S
C2051      O2064   1.275       .  A
C2051      O2056   1.277       .  A
C2052      O2079   1.269       .  A
Mg2053     O2060   2.136       .  S
Mg2053     O2391   2.159       .  S
Mg2053     O2384   2.308       .  S
Mg2053     O2055   2.289       .  S
Mg2053     O2082   2.230       .  S
O2054     Mg2713   2.312   1_554  S
O2056     Mg2723   2.320   1_554  S
O2057      C2076   1.268       .  A
O2058      C2078   1.275       .  A
O2058     Mg3394   2.310       .  S
O2060     Mg2404   2.155       .  S
O2060      C2071   1.232       .  S
O2061     Mg2713   2.160   1_554  S
O2061     Mg2080   2.167       .  S
O2062     Mg2074   2.298       .  S
Mg2063     O3369   2.140   1_545  S
Mg2063     O3029   2.310   1_545  S
Mg2063     O2386   2.314       .  S
Mg2063     O3069   2.229   1_545  S
H2065      C2070   1.081       .  S
O2066     Mg3064   2.156       .  S
H2068      C2071   1.081       .  S
C2071      O3038   1.266   1_545  A
Mg2074     O2720   2.157   1_554  S
Mg2074     O3056   2.156   1_545  S
Mg2074     O3708   2.313   1_544  S
H2075      C3026   1.081       .  S
C2076      C2679   1.477       .  S
C2076      O2081   1.270   1_554  A
O2077      C2078   1.267       .  A
O2079     Mg3053   2.230       .  S
Mg2080     O2710   2.299       .  S
O2081     Mg2697   2.270       .  S
C2083      C2087   1.537       .  S
C2083      C2267   1.553       .  S
C2084      H2091   1.086       .  S
C2084      C2085   1.359   1_455  D
C2085      C2086   1.555       .  S
C2085      C2280   1.496       .  S
C2086      C2090   1.555       .  S
C2086      H2092   1.100       .  S
C2087      H2093   1.086       .  S
C2087      C2088   1.379       .  D
C2088      C2187   1.526       .  S
C2089      H2094   1.080       .  S
C2089      C2090   1.367   1_455  D
C2090      C2168   1.502       .  S
C2095      C3086   1.532       .  S
C2095      C3091   1.541       .  S
C2095      C2099   1.534       .  S
C2095      C2123   1.547       .  S
C2096      C3085   1.534   1_545  S
C2096      H2103   1.081       .  S
C2096      C2097   1.375       .  D
C2097      C2098   1.560       .  S
C2097      C2299   1.519       .  S
C2098      C2102   1.541       .  S
C2098      C3090   1.551   1_545  S
C2098      H2104   1.106       .  S
C2099      H2105   1.084       .  S
C2099      C2100   1.364       .  D
C2100      C3088   1.550       .  S
C2100      C2203   1.488       .  S
C2101      C3085   1.541   1_545  S
C2101      H2106   1.085       .  S
C2101      C2102   1.363       .  D
C2102      C2216   1.490       .  S
C2107      C2108   1.526       .  S
C2107      C2113   1.539       .  S
C2107      C2111   1.542       .  S
C2107      C2251   1.559       .  S
C2108      H2115   1.079       .  S
C2108      C2109   1.357       .  D
C2109      C2110   1.551       .  S
C2109      C2235   1.488       .  S
C2110      C2114   1.549       .  S
C2110      C2112   1.563       .  S
C2110      H2116   1.094       .  S
C2111      H2117   1.076       .  S
C2111      C2112   1.384       .  D
C2112      C2139   1.541       .  S
C2113      H2118   1.084       .  S
C2113      C2114   1.367       .  D
C2114      C2152   1.510       .  S
C2119      C2120   1.397       .  A
C2119      C2124   1.411       .  A
C2119      H2126   1.085       .  S
C2120      C2121   1.421       .  A
C2121      C2122   1.400       .  A
C2121      C2788   1.523   1_554  S
C2122      C2123   1.410       .  A
C2122      H2127   1.079       .  S
C2123      C2124   1.426       .  A
C2124      C2125   1.512       .  S
C2125      F2129   1.385       .  S
C2125      F2130   1.382       .  S
C2125      F2131   1.379       .  S
C2128      C2451   1.524       .  S
C2128      F2132   1.383       .  S
C2128      F2133   1.380       .  S
C2128      F2134   1.378       .  S
C2135      C2136   1.401       .  A
C2135      C2140   1.418       .  A
C2135      H2142   1.083       .  S
C2136      C2137   1.403       .  A
C2137      C2138   1.404       .  A
C2137      C2144   1.517       .  S
C2138      C2139   1.422       .  A
C2138      H2143   1.078       .  S
C2139      C2140   1.441       .  A
C2140      C2141   1.520       .  S
C2141      F2145   1.385       .  S
C2141      F2146   1.381       .  S
C2141      F2147   1.377       .  S
C2144      F2148   1.379       .  S
C2144      F2149   1.382       .  S
C2144      F2150   1.384       .  S
C2151      C2152   1.404       .  A
C2151      C2156   1.409       .  A
C2151      H2158   1.082       .  S
C2152      C2153   1.425       .  A
C2153      C2154   1.413       .  A
C2153      C2160   1.513       .  S
C2154      C2155   1.405       .  A
C2154      H2159   1.084       .  S
C2155      C2156   1.425       .  A
C2156      C2157   1.518       .  S
C2157      F2161   1.384       .  S
C2157      F2162   1.383       .  S
C2157      F2163   1.382       .  S
C2160      F2164   1.381       .  S
C2160      F2165   1.381       .  S
C2160      F2166   1.385       .  S
C2167      C2168   1.406       .  A
C2167      C2172   1.424       .  A
C2167      H2174   1.083       .  S
C2168      C2169   1.413       .  A
C2169      C2170   1.404       .  A
C2170      C2171   1.413       .  A
C2170      H2175   1.082       .  S
C2171      C2172   1.430       .  A
C2172      C2173   1.518       .  S
C2173      F2177   1.385       .  S
C2173      F2178   1.383       .  S
C2173      F2179   1.382       .  S
C2176      F2180   1.385       .  S
C2176      F2181   1.383       .  S
C2176      F2182   1.372       .  S
C2183      C2184   1.399       .  A
C2183      C2188   1.414       .  A
C2183      H2190   1.081   1_554  S
C2184      C2185   1.414       .  A
C2185      C2186   1.411       .  A
C2185      C2192   1.518       .  S
C2186      C2187   1.415       .  A
C2186      H2191   1.081       .  S
C2187      C2188   1.434       .  A
C2189      F2193   1.382   1_554  S
C2189      F2194   1.381       .  S
C2189      F2195   1.369       .  S
C2192      F2196   1.382       .  S
C2192      F2197   1.382       .  S
C2192      F2198   1.384       .  S
C2199      C2200   1.399       .  A
C2199      C2204   1.405       .  A
C2199      H2206   1.083       .  S
C2200      C2201   1.422       .  A
C2201      C2202   1.407       .  A
C2201      C2208   1.520       .  S
C2202      C2203   1.399       .  A
C2202      H2207   1.083       .  S
C2203      C2204   1.417       .  A
C2204      C2205   1.506       .  S
C2205      F2209   1.375       .  S
C2205      F2210   1.381       .  S
C2205      F2211   1.385       .  S
C2208      F2212   1.380       .  S
C2208      F2213   1.384       .  S
C2208      F2214   1.382       .  S
C2215      C2216   1.404       .  A
C2215      C2220   1.398       .  A
C2215      H2222   1.085       .  S
C2216      C2217   1.418       .  A
C2217      C2218   1.414       .  A
C2217      C2224   1.517       .  S
C2218      C2219   1.407       .  A
C2218      H2223   1.083       .  S
C2219      C2220   1.419       .  A
C2220      C2881   1.523       .  S
C2221      C2550   1.522       .  S
C2221      F2225   1.385       .  S
C2221      F2226   1.383       .  S
C2221      F2227   1.382       .  S
C2224      F2228   1.382       .  S
C2224      F2229   1.380       .  S
C2224      F2230   1.385       .  S
C2231      C2232   1.399       .  A
C2231      C2236   1.399       .  A
C2231      H2238   1.076       .  S
C2232      C2233   1.421       .  A
C2233      C2234   1.416       .  A
C2233      C2240   1.519       .  S
C2234      C2235   1.406       .  A
C2234      H2239   1.083       .  S
C2235      C2236   1.422       .  A
C2236      C2237   1.519       .  S
C2237      F2241   1.384       .  S
C2237      F2242   1.382       .  S
C2237      F2243   1.370       .  S
C2240      F2244   1.384       .  S
C2240      F2245   1.381       .  S
C2240      F2246   1.384       .  S
C2247      C2248   1.405       .  A
C2247      C2252   1.404       .  A
C2247      H2254   1.082       .  S
C2248      C2249   1.413       .  A
C2249      C2250   1.412       .  A
C2249      C2256   1.521       .  S
C2250      C2251   1.422       .  A
C2250      H2255   1.073       .  S
C2251      C2252   1.434       .  A
C2252      C2253   1.530       .  S
C2253      F2257   1.381       .  S
C2253      F2258   1.378       .  S
C2253      F2259   1.375       .  S
C2256      F2260   1.384       .  S
C2256      F2261   1.381       .  S
C2256      F2262   1.385       .  S
C2263      C2264   1.400       .  A
C2263      C2268   1.407       .  A
C2263      H2270   1.085       .  S
C2264      C2265   1.417       .  A
C2265      C2266   1.404       .  A
C2265      C2272   1.519       .  S
C2266      C2267   1.412       .  A
C2266      H2271   1.083       .  S
C2267      C2268   1.428       .  A
C2268      C2269   1.512       .  S
C2269      F2273   1.385       .  S
C2269      F2274   1.381       .  S
C2269      F2275   1.377       .  S
C2272      F2276   1.383       .  S
C2272      F2277   1.383       .  S
C2272      F2278   1.383       .  S
C2279      C2280   1.406       .  A
C2279      C2284   1.420       .  A
C2279      H2286   1.083       .  S
C2280      C2281   1.426       .  A
C2281      C2282   1.399       .  A
C2282      C2283   1.402       .  A
C2282      H2287   1.086       .  S
C2283      C2284   1.423       .  A
C2284      C2285   1.517       .  S
C2285      F2289   1.385       .  S
C2285      F2290   1.379       .  S
C2285      F2291   1.381       .  S
C2288      F2292   1.383       .  S
C2288      F2293   1.377       .  S
C2288      F2294   1.385       .  S
C2295      C2296   1.401       .  A
C2295      C2300   1.407       .  A
C2295      H2302   1.085       .  S
C2296      C2297   1.415       .  A
C2297      C2298   1.418       .  A
C2297      C2634   1.518       .  S
C2298      C2299   1.412       .  A
C2298      H2303   1.076       .  S
C2299      C2300   1.430       .  A
C2300      C2301   1.521       .  S
C2301      F2305   1.384       .  S
C2301      F2306   1.382       .  S
C2301      F2307   1.383       .  S
C2304      C2957   1.518   1_554  S
C2304      F2308   1.381       .  S
C2304      F2309   1.382       .  S
C2304      F2310   1.385       .  S
C2311      C2642   1.412       .  A
C2311      C2316   1.405       .  A
C2311      C2626   1.494       .  S
C2312      C2313   1.415       .  A
C2312      H2317   1.080       .  S
C2313      C2314   1.414       .  A
C2313      C2613   1.501       .  S
C2314      H2318   1.084       .  S
C2315      C2644   1.402       .  A
C2315      C2316   1.401       .  A
C2315      C2711   1.491       .  S
C2316      H2319   1.082       .  S
C2320      C2321   1.415       .  A
C2320      C2325   1.405       .  A
C2320      C2594   1.483       .  S
C2321      C2652   1.414       .  A
C2321      H2326   1.079       .  S
C2322      C2323   1.402       .  A
C2322      C2578   1.503       .  S
C2323      H2327   1.085       .  S
C2324      C2653   1.389       .  A
C2324      C2325   1.391       .  A
C2324      C2374   1.457       .  S
C2325      H2328   1.084       .  S
C2329      C2330   1.409       .  A
C2329      C2334   1.407       .  A
C2329      C2549   1.487       .  S
C2330      H2335   1.082       .  S
C2331      C2660   1.405       .  A
C2331      C2332   1.410       .  A
C2331      C2562   1.494       .  S
C2332      C2663   1.407       .  A
C2332      H2336   1.084       .  S
C2333      C2334   1.399       .  A
C2333      C2370   1.484       .  S
C2334      H2337   1.083       .  S
C2338      C2339   1.398       .  A
C2338      C2343   1.415       .  A
C2338      C2530   1.484       .  S
C2339      C2340   1.391       .  A
C2339      H2344   1.083       .  S
C2340      C2671   1.400       .  A
C2340      C2408   1.461       .  S
C2341      C2342   1.401       .  A
C2341      H2345   1.085       .  S
C2342      C2514   1.491       .  S
C2343      C2672   1.412       .  A
C2343      H2346   1.082       .  S
C2347      C2348   1.408       .  A
C2347      C2352   1.423       .  A
C2347      C2501   1.521       .  S
C2348      C2349   1.396       .  A
C2348      H2353   1.083       .  S
C2349      C2680   1.393       .  A
C2349      C2736   1.474       .  S
C2350      C2351   1.407       .  A
C2350      H2354   1.083       .  S
C2351      C2485   1.501       .  S
C2352      C2681   1.424       .  A
C2352      H2355   1.077       .  S
C2356      C2357   1.422       .  A
C2356      C2361   1.407       .  A
C2356      C2466   1.492       .  S
C2357      C2688   1.416       .  A
C2357      H2362   1.081       .  S
C2358      C2359   1.389       .  A
C2358      C2450   1.486       .  S
C2359      H2363   1.083       .  S
C2360      C2689   1.384       .  A
C2360      C2361   1.394       .  A
C2360      C2382   1.460       .  S
C2361      H2364   1.084       .  S
O2365     Mg2367   2.124       .  S
O2365     Mg2703   2.150       .  S
O2365      C2400   1.237       .  S
C2366      H3395   1.081       .  S
C2366      O3369   1.235       .  S
C2366      O2403   1.269   1_565  A
Mg2367     O2741   2.274       .  S
O2368     Mg2393   2.126       .  S
O2368      C2389   1.234       .  S
O2369      C2400   1.272       .  A
O2369     Mg3383   2.314       .  S
C2370      O2372   1.274       .  A
C2370      O2384   1.276       .  A
O2371      C2399   1.271       .  A
O2371     Mg2373   2.299       .  S
O2372     Mg2404   2.275       .  S
Mg2373     O2379   2.160       .  S
Mg2373     O2387   2.268       .  S
C2374      O2412   1.271       .  A
C2374      O2380   1.272       .  A
O2375      C2382   1.263       .  A
O2375     Mg2703   2.267       .  S
H2376      C2389   1.081       .  S
C2377      H2402   1.081       .  S
C2377      O2391   1.235       .  S
C2377      O2392   1.269       .  A
O2378      C3391   1.266       .  A
O2379     Mg3053   2.139       .  S
O2379      C3356   1.235       .  S
O2380     Mg2740   2.300       .  S
C2381      O2394   1.275       .  A
C2381      O2386   1.276       .  A
C2382      O2409   1.269       .  A
Mg2383     O2390   2.133       .  S
Mg2383     O2721   2.159       .  S
Mg2383     O2714   2.313       .  S
Mg2383     O2385   2.291       .  S
Mg2383     O2412   2.230       .  S
O2387      C2406   1.268       .  A
O2388      C2408   1.275       .  A
O2388     Mg3724   2.310       .  S
O2390     Mg2734   2.155       .  S
O2390      C2401   1.232       .  S
O2391     Mg2410   2.167       .  S
O2392     Mg2404   2.299       .  S
Mg2393     O3699   2.138   1_545  S
Mg2393     O3359   2.314   1_545  S
Mg2393     O2716   2.318       .  S
Mg2393     O3399   2.233   1_545  S
H2395      C2400   1.081       .  S
O2396     Mg3394   2.156       .  S
H2398      C2401   1.081       .  S
C2401      O3368   1.266   1_545  A
Mg2404     O3386   2.158   1_545  S
Mg2404     O3048   2.310   1_545  S
H2405      C3356   1.081       .  S
C2406      O2411   1.271       .  A
O2407      C2408   1.267       .  A
O2409     Mg3383   2.232       .  S
C2413      C2417   1.536       .  S
C2413      C2597   1.550       .  S
C2414      H2421   1.086       .  S
C2414      C2415   1.359   1_455  D
C2415      C2416   1.554       .  S
C2415      C2610   1.496       .  S
C2416      C2420   1.555       .  S
C2416      H2422   1.100       .  S
C2417      H2423   1.086       .  S
C2417      C2418   1.378       .  D
C2418      C2517   1.522       .  S
C2419      H2424   1.082       .  S
C2419      C2420   1.368   1_455  D
C2420      C2498   1.501       .  S
C2425      C3416   1.535       .  S
C2425      C3421   1.542       .  S
C2425      C2429   1.534       .  S
C2425      C2453   1.550       .  S
C2426      C3415   1.533   1_545  S
C2426      H2433   1.081       .  S
C2426      C2427   1.375       .  D
C2427      C2428   1.559       .  S
C2427      C2629   1.516       .  S
C2428      C2432   1.540       .  S
C2428      C3420   1.552   1_545  S
C2428      H2434   1.107       .  S
C2429      H2435   1.085       .  S
C2429      C2430   1.364       .  D
C2430      C3418   1.552       .  S
C2430      C2533   1.490       .  S
C2431      C3415   1.541   1_545  S
C2431      H2436   1.085       .  S
C2431      C2432   1.362       .  D
C2432      C2546   1.489       .  S
C2437      C2438   1.526       .  S
C2437      C2443   1.537       .  S
C2437      C2441   1.541       .  S
C2437      C2581   1.557       .  S
C2438      H2445   1.079       .  S
C2438      C2439   1.358       .  D
C2439      C2440   1.550       .  S
C2439      C2565   1.486       .  S
C2440      C2444   1.549       .  S
C2440      C2442   1.565       .  S
C2440      H2446   1.093       .  S
C2441      H2447   1.076       .  S
C2441      C2442   1.384       .  D
C2442      C2469   1.543       .  S
C2443      H2448   1.084       .  S
C2443      C2444   1.365       .  D
C2444      C2482   1.509       .  S
C2449      C2450   1.396       .  A
C2449      C2454   1.411       .  A
C2449      H2456   1.085       .  S
C2450      C2451   1.422       .  A
C2451      C2452   1.402       .  A
C2452      C2453   1.411       .  A
C2452      H2457   1.078       .  S
C2453      C2454   1.427       .  A
C2454      C2455   1.512       .  S
C2455      F2459   1.385       .  S
C2455      F2460   1.382       .  S
C2455      F2461   1.378       .  S
C2458      C2781   1.524       .  S
C2458      F2462   1.383       .  S
C2458      F2463   1.380       .  S
C2458      F2464   1.377       .  S
C2465      C2466   1.402       .  A
C2465      C2470   1.419       .  A
C2465      H2472   1.083       .  S
C2466      C2467   1.403       .  A
C2467      C2468   1.404       .  A
C2467      C2474   1.517       .  S
C2468      C2469   1.422       .  A
C2468      H2473   1.077       .  S
C2469      C2470   1.442       .  A
C2470      C2471   1.521       .  S
C2471      F2475   1.385       .  S
C2471      F2476   1.381       .  S
C2471      F2477   1.378       .  S
C2474      F2478   1.378       .  S
C2474      F2479   1.382       .  S
C2474      F2480   1.385       .  S
C2481      C2482   1.403       .  A
C2481      C2486   1.407       .  A
C2481      H2488   1.081       .  S
C2482      C2483   1.425       .  A
C2483      C2484   1.412       .  A
C2483      C2490   1.513       .  S
C2484      C2485   1.404       .  A
C2484      H2489   1.084       .  S
C2485      C2486   1.424       .  A
C2486      C2487   1.518       .  S
C2487      F2491   1.384       .  S
C2487      F2492   1.383       .  S
C2487      F2493   1.383       .  S
C2490      F2494   1.381       .  S
C2490      F2495   1.381       .  S
C2490      F2496   1.385       .  S
C2497      C2498   1.406       .  A
C2497      C2502   1.423       .  A
C2497      H2504   1.083       .  S
C2498      C2499   1.413       .  A
C2499      C2500   1.404       .  A
C2500      C2501   1.413       .  A
C2500      H2505   1.082       .  S
C2501      C2502   1.429       .  A
C2502      C2503   1.518       .  S
C2503      F2507   1.385       .  S
C2503      F2508   1.383       .  S
C2503      F2509   1.382       .  S
C2506      F2510   1.385       .  S
C2506      F2511   1.383       .  S
C2506      F2512   1.372       .  S
C2513      C2514   1.398       .  A
C2513      C2518   1.411       .  A
C2513      H2520   1.082       .  S
C2514      C2515   1.413       .  A
C2515      C2516   1.409       .  A
C2515      C2522   1.518       .  S
C2516      C2517   1.415       .  A
C2516      H2521   1.081       .  S
C2517      C2518   1.433       .  A
C2519      F2523   1.382       .  S
C2519      F2524   1.381       .  S
C2519      F2525   1.369       .  S
C2522      F2526   1.381       .  S
C2522      F2527   1.382       .  S
C2522      F2528   1.385       .  S
C2529      C2530   1.398       .  A
C2529      C2534   1.405       .  A
C2529      H2536   1.083       .  S
C2530      C2531   1.422       .  A
C2531      C2532   1.409       .  A
C2531      C2538   1.520       .  S
C2532      C2533   1.401       .  A
C2532      H2537   1.083       .  S
C2533      C2534   1.417       .  A
C2534      C2535   1.505       .  S
C2535      F2539   1.375       .  S
C2535      F2540   1.381       .  S
C2535      F2541   1.385       .  S
C2538      F2542   1.380       .  S
C2538      F2543   1.384       .  S
C2538      F2544   1.381       .  S
C2545      C2546   1.403       .  A
C2545      C2550   1.397       .  A
C2545      H2552   1.085       .  S
C2546      C2547   1.418       .  A
C2547      C2548   1.414       .  A
C2547      C2554   1.517       .  S
C2548      C2549   1.408       .  A
C2548      H2553   1.083       .  S
C2549      C2550   1.418       .  A
C2551      C2880   1.522       .  S
C2551      F2555   1.385       .  S
C2551      F2556   1.382       .  S
C2551      F2557   1.382       .  S
C2554      F2558   1.382       .  S
C2554      F2559   1.380       .  S
C2554      F2560   1.385       .  S
C2561      C2562   1.399       .  A
C2561      C2566   1.399       .  A
C2561      H2568   1.076       .  S
C2562      C2563   1.421       .  A
C2563      C2564   1.416       .  A
C2563      C2570   1.520       .  S
C2564      C2565   1.406       .  A
C2564      H2569   1.083       .  S
C2565      C2566   1.421       .  A
C2566      C2567   1.519       .  S
C2567      F2571   1.383       .  S
C2567      F2572   1.382       .  S
C2567      F2573   1.371       .  S
C2570      F2574   1.383       .  S
C2570      F2575   1.381       .  S
C2570      F2576   1.384       .  S
C2577      C2578   1.406       .  A
C2577      C2582   1.404       .  A
C2577      H2584   1.082       .  S
C2578      C2579   1.414       .  A
C2579      C2580   1.412       .  A
C2579      C2586   1.521       .  S
C2580      C2581   1.421       .  A
C2580      H2585   1.074       .  S
C2581      C2582   1.434       .  A
C2582      C2583   1.530       .  S
C2583      F2587   1.381       .  S
C2583      F2588   1.379       .  S
C2583      F2589   1.375       .  S
C2586      F2590   1.384       .  S
C2586      F2591   1.381       .  S
C2586      F2592   1.385       .  S
C2593      C2594   1.399       .  A
C2593      C2598   1.407       .  A
C2593      H2600   1.085       .  S
C2594      C2595   1.416       .  A
C2595      C2596   1.404       .  A
C2595      C2602   1.518       .  S
C2596      C2597   1.412       .  A
C2596      H2601   1.083       .  S
C2597      C2598   1.429       .  A
C2598      C2599   1.512       .  S
C2599      F2603   1.385       .  S
C2599      F2604   1.381       .  S
C2599      F2605   1.376       .  S
C2602      F2606   1.383       .  S
C2602      F2607   1.383       .  S
C2602      F2608   1.384       .  S
C2609      C2610   1.406       .  A
C2609      C2614   1.421       .  A
C2609      H2616   1.083       .  S
C2610      C2611   1.427       .  A
C2611      C2612   1.398       .  A
C2612      C2613   1.401       .  A
C2612      H2617   1.086       .  S
C2613      C2614   1.423       .  A
C2614      C2615   1.517       .  S
C2615      F2619   1.385       .  S
C2615      F2620   1.380       .  S
C2615      F2621   1.381       .  S
C2618      F2622   1.383       .  S
C2618      F2623   1.377       .  S
C2618      F2624   1.385       .  S
C2625      C2626   1.400       .  A
C2625      C2630   1.404       .  A
C2625      H2632   1.085       .  S
C2626      C2627   1.415       .  A
C2627      C2628   1.418       .  A
C2627      C2964   1.518       .  S
C2628      C2629   1.413       .  A
C2628      H2633   1.077       .  S
C2629      C2630   1.429       .  A
C2630      C2631   1.521       .  S
C2631      F2635   1.384       .  S
C2631      F2636   1.382       .  S
C2631      F2637   1.383       .  S
C2634      F2638   1.381       .  S
C2634      F2639   1.382       .  S
C2634      F2640   1.385       .  S
C2641      C2646   1.406   1_556  A
C2641      C2956   1.496       .  S
C2642      C2643   1.414       .  A
C2642      H2647   1.079       .  S
C2643      C2644   1.415       .  A
C2643      C2943   1.502       .  S
C2644      H2648   1.084       .  S
C2645      C2646   1.402       .  A
C2646      H2649   1.082   1_554  S
C2650      C2651   1.416       .  A
C2650      C2655   1.407       .  A
C2650      C2924   1.486       .  S
C2651      H2656   1.079       .  S
C2652      C2653   1.401       .  A
C2652      C2908   1.500       .  S
C2653      H2657   1.085       .  S
C2654      C2655   1.392       .  A
C2654      C2704   1.459       .  S
C2655      H2658   1.084       .  S
C2659      C2660   1.408       .  A
C2659      C2664   1.408       .  A
C2659      C2879   1.486       .  S
C2660      H2665   1.082       .  S
C2661      C2662   1.410       .  A
C2661      C2892   1.495       .  S
C2662      H2666   1.084       .  S
C2663      C2664   1.401       .  A
C2663      C2700   1.486       .  S
C2664      H2667   1.084       .  S
C2668      C2669   1.399       .  A
C2668      C2673   1.416       .  A
C2668      C2860   1.486       .  S
C2669      C2670   1.391       .  A
C2669      H2674   1.083       .  S
C2670      C2738   1.462       .  S
C2671      C2672   1.401       .  A
C2671      H2675   1.085       .  S
C2672      C2844   1.493       .  S
C2673      H2676   1.083       .  S
C2677      C2678   1.408       .  A
C2677      C2682   1.424   1_556  A
C2677      C2831   1.523       .  S
C2678      C2679   1.398   1_556  A
C2678      H2683   1.083       .  S
C2680      C2681   1.407       .  A
C2680      H2684   1.083       .  S
C2681      C2815   1.502       .  S
C2682      H2685   1.077       .  S
C2686      C2687   1.421       .  A
C2686      C2691   1.408       .  A
C2686      C2796   1.491       .  S
C2687      H2692   1.081   1_556  S
C2688      C2689   1.390       .  A
C2688      C2780   1.488       .  S
C2689      H2693   1.083       .  S
C2690      C2691   1.395       .  A
C2690      C2712   1.459       .  S
C2691      H2694   1.084       .  S
O2695     Mg2697   2.120       .  S
O2695      C2730   1.237       .  S
C2696      H3725   1.081       .  S
C2696      O3699   1.235       .  S
C2696      O2733   1.269   1_565  A
O2698     Mg2723   2.124       .  S
O2698      C2719   1.234       .  S
O2699      C2730   1.272       .  A
O2699     Mg3713   2.312       .  S
C2700      O2702   1.274       .  A
C2700      O2714   1.276       .  A
O2701      C2729   1.272       .  A
O2701     Mg2703   2.302       .  S
O2702     Mg2734   2.277       .  S
Mg2703     O2709   2.152       .  S
Mg2703     O2717   2.261       .  S
C2704      O2742   1.272       .  A
C2704      O2710   1.272   1_556  A
O2705      C2712   1.264       .  A
H2706      C2719   1.081       .  S
C2707      H2732   1.081       .  S
C2707      O2721   1.235       .  S
C2707      O2722   1.269       .  A
O2708      C3721   1.266       .  A
O2709     Mg3383   2.138       .  S
O2709      C3686   1.234       .  S
C2711      O2724   1.274       .  A
C2711      O2716   1.277       .  A
C2712      O2739   1.270       .  A
Mg2713     O2720   2.139       .  S
Mg2713     O2715   2.289       .  S
Mg2713     O2742   2.236       .  S
O2717      C2736   1.267       .  A
O2718      C2738   1.275       .  A
O2718     Mg3064   2.311   1_556  S
O2720      C2731   1.232       .  S
O2721     Mg2740   2.163       .  S
O2722     Mg2734   2.296       .  S
Mg2723     O3039   2.140   1_546  S
Mg2723     O3689   2.311   1_545  S
Mg2723     O3729   2.230   1_545  S
H2725      C2730   1.081       .  S
O2726     Mg3724   2.162       .  S
H2728      C2731   1.081       .  S
C2731      O3698   1.266   1_545  A
Mg2734     O3716   2.160   1_545  S
Mg2734     O3378   2.306   1_545  S
H2735      C3686   1.081       .  S
C2736      O2741   1.271       .  A
O2737      C2738   1.267       .  A
O2739     Mg3713   2.234       .  S
C2743      C2747   1.538       .  S
C2743      C2927   1.551       .  S
C2744      H2751   1.086       .  S
C2744      C2745   1.359   1_455  D
C2745      C2746   1.555       .  S
C2745      C2940   1.496       .  S
C2746      C2750   1.557       .  S
C2746      H2752   1.100       .  S
C2747      H2753   1.086       .  S
C2747      C2748   1.380       .  D
C2748      C2847   1.526       .  S
C2749      H2754   1.081       .  S
C2749      C2750   1.367   1_455  D
C2750      C2828   1.505       .  S
C2755      C3746   1.535       .  S
C2755      C3751   1.541       .  S
C2755      C2759   1.534       .  S
C2755      C2783   1.551       .  S
C2756      C3745   1.535   1_545  S
C2756      H2763   1.082       .  S
C2756      C2757   1.376       .  D
C2757      C2758   1.559       .  S
C2757      C2959   1.518       .  S
C2758      C2762   1.542       .  S
C2758      C3750   1.551   1_545  S
C2758      H2764   1.107       .  S
C2759      H2765   1.084       .  S
C2759      C2760   1.363       .  D
C2760      C3748   1.554       .  S
C2760      C2863   1.492       .  S
C2761      C3745   1.540   1_545  S
C2761      H2766   1.085       .  S
C2761      C2762   1.362       .  D
C2762      C2876   1.490       .  S
C2767      C2768   1.525       .  S
C2767      C2773   1.539       .  S
C2767      C2771   1.543       .  S
C2767      C2911   1.558       .  S
C2768      H2775   1.079       .  S
C2768      C2769   1.357       .  D
C2769      C2770   1.551       .  S
C2769      C2895   1.487       .  S
C2770      C2774   1.549       .  S
C2770      C2772   1.564       .  S
C2770      H2776   1.093       .  S
C2771      H2777   1.075       .  S
C2771      C2772   1.384       .  D
C2772      C2799   1.543       .  S
C2773      H2778   1.084       .  S
C2773      C2774   1.366       .  D
C2774      C2812   1.510       .  S
C2779      C2780   1.397       .  A
C2779      C2784   1.413       .  A
C2779      H2786   1.085       .  S
C2780      C2781   1.422       .  A
C2781      C2782   1.402       .  A
C2782      C2783   1.411       .  A
C2782      H2787   1.079       .  S
C2783      C2784   1.428       .  A
C2784      C2785   1.512       .  S
C2785      F2789   1.385       .  S
C2785      F2790   1.382       .  S
C2785      F2791   1.378       .  S
C2788      F2792   1.383       .  S
C2788      F2793   1.380       .  S
C2788      F2794   1.377       .  S
C2795      C2796   1.401       .  A
C2795      C2800   1.418       .  A
C2795      H2802   1.083       .  S
C2796      C2797   1.404       .  A
C2797      C2798   1.405       .  A
C2797      C2804   1.518       .  S
C2798      C2799   1.423       .  A
C2798      H2803   1.077       .  S
C2799      C2800   1.442       .  A
C2800      C2801   1.520       .  S
C2801      F2805   1.386       .  S
C2801      F2806   1.381       .  S
C2801      F2807   1.377       .  S
C2804      F2808   1.378       .  S
C2804      F2809   1.382       .  S
C2804      F2810   1.384       .  S
C2811      C2812   1.404       .  A
C2811      C2816   1.409       .  A
C2811      H2818   1.082       .  S
C2812      C2813   1.425       .  A
C2813      C2814   1.412       .  A
C2813      C2820   1.512       .  S
C2814      C2815   1.404       .  A
C2814      H2819   1.084       .  S
C2815      C2816   1.424       .  A
C2816      C2817   1.518       .  S
C2817      F2821   1.384       .  S
C2817      F2822   1.383       .  S
C2817      F2823   1.383       .  S
C2820      F2824   1.381       .  S
C2820      F2825   1.380       .  S
C2820      F2826   1.385       .  S
C2827      C2828   1.406       .  A
C2827      C2832   1.424       .  A
C2827      H2834   1.083       .  S
C2828      C2829   1.414       .  A
C2829      C2830   1.406       .  A
C2830      C2831   1.413       .  A
C2830      H2835   1.082       .  S
C2831      C2832   1.430       .  A
C2832      C2833   1.517       .  S
C2833      F2837   1.385       .  S
C2833      F2838   1.383       .  S
C2833      F2839   1.382       .  S
C2836      F2840   1.385       .  S
C2836      F2841   1.383       .  S
C2836      F2842   1.373       .  S
C2843      C2844   1.399       .  A
C2843      C2848   1.414       .  A
C2843      H2850   1.083       .  S
C2844      C2845   1.414       .  A
C2845      C2846   1.410       .  A
C2845      C2852   1.519       .  S
C2846      C2847   1.415       .  A
C2846      H2851   1.081       .  S
C2847      C2848   1.435       .  A
C2849      F2853   1.383       .  S
C2849      F2854   1.381       .  S
C2849      F2855   1.369       .  S
C2852      F2856   1.382       .  S
C2852      F2857   1.382       .  S
C2852      F2858   1.384       .  S
C2859      C2860   1.399       .  A
C2859      C2864   1.406       .  A
C2859      H2866   1.083       .  S
C2860      C2861   1.422       .  A
C2861      C2862   1.409       .  A
C2861      C2868   1.521       .  S
C2862      C2863   1.401       .  A
C2862      H2867   1.083       .  S
C2863      C2864   1.417       .  A
C2864      C2865   1.505       .  S
C2865      F2869   1.374       .  S
C2865      F2870   1.381       .  S
C2865      F2871   1.385       .  S
C2868      F2872   1.380       .  S
C2868      F2873   1.384       .  S
C2868      F2874   1.382       .  S
C2875      C2876   1.405       .  A
C2875      C2880   1.398       .  A
C2875      H2882   1.085       .  S
C2876      C2877   1.418       .  A
C2877      C2878   1.414       .  A
C2877      C2884   1.517       .  S
C2878      C2879   1.408       .  A
C2878      H2883   1.083       .  S
C2879      C2880   1.418       .  A
C2881      F2885   1.384       .  S
C2881      F2886   1.383   1_554  S
C2881      F2887   1.382       .  S
C2884      F2888   1.382       .  S
C2884      F2889   1.380       .  S
C2884      F2890   1.385       .  S
C2891      C2892   1.399       .  A
C2891      C2896   1.399       .  A
C2891      H2898   1.070   1_556  S
C2892      C2893   1.421       .  A
C2893      C2894   1.417       .  A
C2893      C2900   1.519       .  S
C2894      C2895   1.406       .  A
C2894      H2899   1.082       .  S
C2895      C2896   1.420       .  A
C2896      C2897   1.520       .  S
C2897      F2901   1.383       .  S
C2897      F2902   1.382       .  S
C2897      F2903   1.371       .  S
C2900      F2904   1.383       .  S
C2900      F2905   1.381       .  S
C2900      F2906   1.384       .  S
C2907      C2908   1.405       .  A
C2907      C2912   1.404       .  A
C2907      H2914   1.082       .  S
C2908      C2909   1.413       .  A
C2909      C2910   1.412       .  A
C2909      C2916   1.521       .  S
C2910      C2911   1.422       .  A
C2910      H2915   1.073       .  S
C2911      C2912   1.434       .  A
C2912      C2913   1.530       .  S
C2913      F2917   1.382       .  S
C2913      F2918   1.379       .  S
C2913      F2919   1.374       .  S
C2916      F2920   1.384       .  S
C2916      F2921   1.381       .  S
C2916      F2922   1.385       .  S
C2923      C2924   1.401       .  A
C2923      C2928   1.408       .  A
C2923      H2930   1.085       .  S
C2924      C2925   1.417       .  A
C2925      C2926   1.405       .  A
C2925      C2932   1.519       .  S
C2926      C2927   1.412       .  A
C2926      H2931   1.083       .  S
C2927      C2928   1.427       .  A
C2928      C2929   1.512       .  S
C2929      F2933   1.385       .  S
C2929      F2934   1.382       .  S
C2929      F2935   1.378       .  S
C2932      F2936   1.383       .  S
C2932      F2937   1.383       .  S
C2932      F2938   1.383       .  S
C2939      C2940   1.405       .  A
C2939      C2944   1.420       .  A
C2939      H2946   1.083       .  S
C2940      C2941   1.427       .  A
C2941      C2942   1.398       .  A
C2942      C2943   1.402       .  A
C2942      H2947   1.085       .  S
C2943      C2944   1.424       .  A
C2944      C2945   1.517       .  S
C2945      F2949   1.385       .  S
C2945      F2950   1.380       .  S
C2945      F2951   1.381       .  S
C2948      F2952   1.383       .  S
C2948      F2953   1.377       .  S
C2948      F2954   1.385       .  S
C2955      C2956   1.401       .  A
C2955      C2960   1.405       .  A
C2955      H2962   1.085       .  S
C2956      C2957   1.416       .  A
C2957      C2958   1.418       .  A
C2958      C2959   1.412       .  A
C2958      H2963   1.076       .  S
C2959      C2960   1.427       .  A
C2960      C2961   1.520       .  S
C2961      F2965   1.384       .  S
C2961      F2966   1.381       .  S
C2961      F2967   1.383       .  S
C2964      F2968   1.381       .  S
C2964      F2969   1.382       .  S
C2964      F2970   1.385       .  S
C2971      C3302   1.412       .  A
C2971      C2976   1.405       .  A
C2971      C3286   1.492       .  S
C2972      C3631   1.414   1_554  A
C2972      C2973   1.416       .  A
C2972      H2977   1.080       .  S
C2973      C2974   1.415       .  A
C2973      C3273   1.505       .  S
C2974      C3635   1.402       .  A
C2974      H2978   1.084       .  S
C2975      C3304   1.401       .  A
C2975      C2976   1.401       .  A
C2975      C3371   1.489       .  S
C2976      H2979   1.083       .  S
C2980      C2981   1.415       .  A
C2980      C2985   1.406       .  A
C2980      C3254   1.484       .  S
C2981      C3312   1.413       .  A
C2981      H2986   1.078       .  S
C2982      C3641   1.415   1_554  A
C2982      C2983   1.402       .  A
C2982      C3238   1.503       .  S
C2983      C3644   1.388   1_554  A
C2983      H2987   1.085       .  S
C2984      C3313   1.389       .  A
C2984      C2985   1.391       .  A
C2984      C3034   1.458       .  S
C2985      H2988   1.083       .  S
C2989      C2990   1.408       .  A
C2989      C2994   1.408       .  A
C2989      C3209   1.487       .  S
C2990      C3651   1.406   1_554  A
C2990      H2995   1.082       .  S
C2991      C3320   1.407       .  A
C2991      C2992   1.409       .  A
C2991      C3222   1.494       .  S
C2992      C3323   1.406       .  A
C2992      H2996   1.084       .  S
C2993      C3652   1.406   1_554  A
C2993      C2994   1.401       .  A
C2993      C3030   1.485       .  S
C2994      H2997   1.084       .  S
C2998      C2999   1.399       .  A
C2998      C3003   1.415       .  A
C2998      C3190   1.485       .  S
C2999      C3000   1.392       .  A
C2999      H3004   1.082       .  S
C3000      C3331   1.400       .  A
C3000      C3068   1.462       .  S
C3001      C3660   1.400       .  A
C3001      C3002   1.401       .  A
C3001      H3005   1.085   1_556  S
C3002      C3663   1.411       .  A
C3002      C3174   1.492   1_556  S
C3003      C3332   1.411       .  A
C3003      H3006   1.083       .  S
C3007      C3008   1.409       .  A
C3007      C3012   1.422       .  A
C3007      C3161   1.521       .  S
C3008      C3009   1.397       .  A
C3008      H3013   1.083       .  S
C3009      C3340   1.392       .  A
C3009      C3396   1.474       .  S
C3010      C3669   1.393       .  A
C3010      C3011   1.407       .  A
C3010      H3014   1.083       .  S
C3011      C3672   1.424       .  A
C3011      C3145   1.502       .  S
C3012      C3341   1.423       .  A
C3012      H3015   1.077       .  S
C3016      C3017   1.421       .  A
C3016      C3021   1.407       .  A
C3016      C3126   1.492       .  S
C3017      C3348   1.415       .  A
C3017      H3022   1.081       .  S
C3018      C3677   1.416   1_554  A
C3018      C3019   1.389       .  A
C3018      C3110   1.488       .  S
C3019      C3680   1.384   1_554  A
C3019      H3023   1.083       .  S
C3020      C3349   1.384       .  A
C3020      C3021   1.395       .  A
C3020      C3042   1.459       .  S
C3021      H3024   1.084       .  S
O3025     Mg3027   2.122       .  S
O3025     Mg3363   2.152       .  S
O3025      C3060   1.236       .  S
C3026      O3063   1.269       .  A
Mg3027     O3401   2.266       .  S
O3028     Mg3053   2.124       .  S
O3028      C3049   1.234       .  S
O3029      C3060   1.271       .  A
C3030      O3032   1.274       .  A
C3030      O3044   1.277       .  A
O3031      C3059   1.271       .  A
O3031     Mg3033   2.300       .  S
O3032     Mg3064   2.273       .  S
Mg3033     O3685   2.149   1_554  S
Mg3033     O3039   2.156       .  S
Mg3033     O3047   2.269       .  S
Mg3033     O3695   2.266   1_554  S
C3034      O3072   1.271       .  A
C3034      O3040   1.272       .  A
O3035      C3042   1.264       .  A
O3035     Mg3363   2.267       .  S
H3036      C3049   1.081       .  S
C3037      H3062   1.081       .  S
C3037      O3051   1.235       .  S
C3037      O3052   1.269       .  A
O3040     Mg3400   2.302       .  S
C3041      C3635   1.491       .  S
C3041      O3054   1.275       .  A
C3041      O3046   1.277       .  A
C3042      O3069   1.269       .  A
Mg3043     O3050   2.134       .  S
Mg3043     O3381   2.159       .  S
Mg3043     O3374   2.309       .  S
Mg3043     O3045   2.290       .  S
Mg3043     O3072   2.229       .  S
O3044     Mg3703   2.315   1_554  S
O3046     Mg3713   2.320   1_554  S
O3047      C3066   1.268       .  A
O3048      C3068   1.275       .  A
O3050     Mg3394   2.155       .  S
O3050      C3061   1.232       .  S
O3051     Mg3703   2.159   1_554  S
O3051     Mg3070   2.167       .  S
O3052     Mg3064   2.297       .  S
Mg3053     O3376   2.320       .  S
H3055      C3060   1.081       .  S
H3058      C3061   1.081       .  S
Mg3064     O3710   2.157   1_554  S
C3066      C3669   1.476       .  S
C3066      O3071   1.270   1_554  A
O3067      C3068   1.267       .  A
Mg3070     O3700   2.297       .  S
O3071     Mg3687   2.273       .  S
C3073      C3077   1.536       .  S
C3073      C3257   1.550       .  S
C3074      H3081   1.086       .  S
C3074      C3075   1.359   1_455  D
C3075      C3076   1.555       .  S
C3075      C3270   1.498       .  S
C3076      C3080   1.555       .  S
C3076      H3082   1.100       .  S
C3077      H3083   1.086       .  S
C3077      C3078   1.378       .  D
C3078      C3177   1.524       .  S
C3079      H3084   1.080       .  S
C3079      C3080   1.368   1_455  D
C3080      C3158   1.502       .  S
C3085      C3089   1.535       .  S
C3085      C3113   1.550       .  S
C3086      H3093   1.081       .  S
C3086      C3087   1.374       .  D
C3087      C3088   1.559       .  S
C3087      C3289   1.514       .  S
C3088      C3092   1.542       .  S
C3088      H3094   1.106       .  S
C3089      H3095   1.084       .  S
C3089      C3090   1.364       .  D
C3090      C3193   1.491       .  S
C3091      H3096   1.085       .  S
C3091      C3092   1.362       .  D
C3092      C3206   1.493       .  S
C3097      C3098   1.527       .  S
C3097      C3103   1.539       .  S
C3097      C3101   1.542       .  S
C3097      C3241   1.559       .  S
C3098      H3105   1.079       .  S
C3098      C3099   1.358       .  D
C3099      C3100   1.551       .  S
C3099      C3225   1.488       .  S
C3100      C3104   1.549       .  S
C3100      C3102   1.564       .  S
C3100      H3106   1.094       .  S
C3101      H3107   1.076       .  S
C3101      C3102   1.384       .  D
C3102      C3129   1.542       .  S
C3103      H3108   1.084       .  S
C3103      C3104   1.367       .  D
C3104      C3142   1.510       .  S
C3109      C3110   1.397       .  A
C3109      C3114   1.412       .  A
C3109      H3116   1.085       .  S
C3110      C3111   1.422       .  A
C3111      C3112   1.403       .  A
C3111      C3778   1.524   1_554  S
C3112      C3113   1.411       .  A
C3112      H3117   1.079   1_565  S
C3113      C3114   1.427       .  A
C3114      C3115   1.512       .  S
C3115      F3119   1.385       .  S
C3115      F3120   1.382       .  S
C3115      F3121   1.378       .  S
C3118      C3441   1.523       .  S
C3118      F3122   1.383       .  S
C3118      F3123   1.380       .  S
C3118      F3124   1.377       .  S
C3125      C3126   1.402       .  A
C3125      C3130   1.418       .  A
C3125      H3132   1.083       .  S
C3126      C3127   1.404       .  A
C3127      C3128   1.404       .  A
C3127      C3134   1.518       .  S
C3128      C3129   1.422       .  A
C3128      H3133   1.078       .  S
C3129      C3130   1.441       .  A
C3130      C3131   1.521       .  S
C3131      F3135   1.386       .  S
C3131      F3136   1.381       .  S
C3131      F3137   1.377       .  S
C3134      F3138   1.378       .  S
C3134      F3139   1.382       .  S
C3134      F3140   1.384       .  S
C3141      C3142   1.404       .  A
C3141      C3146   1.408       .  A
C3141      H3148   1.082       .  S
C3142      C3143   1.426       .  A
C3143      C3144   1.412       .  A
C3143      C3150   1.513       .  S
C3144      C3145   1.404       .  A
C3144      H3149   1.084       .  S
C3145      C3146   1.424       .  A
C3146      C3147   1.518       .  S
C3147      F3151   1.384       .  S
C3147      F3152   1.383       .  S
C3147      F3153   1.383       .  S
C3150      F3154   1.381       .  S
C3150      F3155   1.381       .  S
C3150      F3156   1.385       .  S
C3157      C3158   1.406       .  A
C3157      C3162   1.423       .  A
C3157      H3164   1.083       .  S
C3158      C3159   1.413       .  A
C3159      C3160   1.404       .  A
C3160      C3161   1.413       .  A
C3160      H3165   1.082       .  S
C3161      C3162   1.430       .  A
C3162      C3163   1.518       .  S
C3163      F3167   1.385       .  S
C3163      F3168   1.383       .  S
C3163      F3169   1.381       .  S
C3166      F3170   1.385       .  S
C3166      F3171   1.383       .  S
C3166      F3172   1.373       .  S
C3173      C3174   1.399       .  A
C3173      C3178   1.413       .  A
C3173      H3180   1.082   1_554  S
C3174      C3175   1.413       .  A
C3175      C3176   1.410       .  A
C3175      C3182   1.519       .  S
C3176      C3177   1.415       .  A
C3176      H3181   1.082       .  S
C3177      C3178   1.433       .  A
C3179      F3183   1.383   1_554  S
C3179      F3184   1.381       .  S
C3179      F3185   1.370       .  S
C3182      F3186   1.381       .  S
C3182      F3187   1.382       .  S
C3182      F3188   1.384       .  S
C3189      C3190   1.399       .  A
C3189      C3194   1.405       .  A
C3189      H3196   1.083       .  S
C3190      C3191   1.422       .  A
C3191      C3192   1.409       .  A
C3191      C3198   1.521       .  S
C3192      C3193   1.401       .  A
C3192      H3197   1.083       .  S
C3193      C3194   1.416       .  A
C3194      C3195   1.504       .  S
C3195      F3199   1.375       .  S
C3195      F3200   1.381       .  S
C3195      F3201   1.385       .  S
C3198      F3202   1.380       .  S
C3198      F3203   1.384       .  S
C3198      F3204   1.382       .  S
C3205      C3206   1.405       .  A
C3205      C3210   1.398       .  A
C3205      H3212   1.085       .  S
C3206      C3207   1.419       .  A
C3207      C3208   1.415       .  A
C3207      C3214   1.517       .  S
C3208      C3209   1.407       .  A
C3208      H3213   1.083       .  S
C3209      C3210   1.417       .  A
C3210      C3871   1.522       .  S
C3211      C3540   1.523       .  S
C3211      F3215   1.385       .  S
C3211      F3216   1.384       .  S
C3211      F3217   1.382       .  S
C3214      F3218   1.382       .  S
C3214      F3219   1.380       .  S
C3214      F3220   1.385       .  S
C3221      C3222   1.399       .  A
C3221      C3226   1.400       .  A
C3221      H3228   1.075       .  S
C3222      C3223   1.421       .  A
C3223      C3224   1.417       .  A
C3223      C3230   1.519       .  S
C3224      C3225   1.406       .  A
C3224      H3229   1.083       .  S
C3225      C3226   1.421       .  A
C3226      C3227   1.519       .  S
C3227      F3231   1.383       .  S
C3227      F3232   1.381       .  S
C3227      F3233   1.370       .  S
C3230      F3234   1.383       .  S
C3230      F3235   1.381       .  S
C3230      F3236   1.384       .  S
C3237      C3238   1.406       .  A
C3237      C3242   1.404       .  A
C3237      H3244   1.082       .  S
C3238      C3239   1.414       .  A
C3239      C3240   1.413       .  A
C3239      C3246   1.521       .  S
C3240      C3241   1.422       .  A
C3240      H3245   1.073       .  S
C3241      C3242   1.434       .  A
C3242      C3243   1.530       .  S
C3243      F3247   1.382       .  S
C3243      F3248   1.378       .  S
C3243      F3249   1.374       .  S
C3246      F3250   1.383       .  S
C3246      F3251   1.381       .  S
C3246      F3252   1.385       .  S
C3253      C3254   1.400       .  A
C3253      C3258   1.407       .  A
C3253      H3260   1.085       .  S
C3254      C3255   1.417       .  A
C3255      C3256   1.404       .  A
C3255      C3262   1.519       .  S
C3256      C3257   1.412       .  A
C3256      H3261   1.083       .  S
C3257      C3258   1.427       .  A
C3258      C3259   1.512       .  S
C3259      F3263   1.385       .  S
C3259      F3264   1.381       .  S
C3259      F3265   1.377       .  S
C3262      F3266   1.383       .  S
C3262      F3267   1.383       .  S
C3262      F3268   1.383       .  S
C3269      C3270   1.406       .  A
C3269      C3274   1.422       .  A
C3269      H3276   1.083       .  S
C3270      C3271   1.426       .  A
C3271      C3272   1.399       .  A
C3272      C3273   1.402       .  A
C3272      H3277   1.085       .  S
C3273      C3274   1.425       .  A
C3274      C3275   1.517       .  S
C3275      F3279   1.385       .  S
C3275      F3280   1.379       .  S
C3275      F3281   1.381       .  S
C3278      F3282   1.383       .  S
C3278      F3283   1.377       .  S
C3278      F3284   1.385       .  S
C3285      C3286   1.401       .  A
C3285      C3290   1.405       .  A
C3285      H3292   1.085       .  S
C3286      C3287   1.414       .  A
C3287      C3288   1.416       .  A
C3287      C3624   1.518       .  S
C3288      C3289   1.411       .  A
C3288      H3293   1.076       .  S
C3289      C3290   1.429       .  A
C3290      C3291   1.521       .  S
C3291      F3295   1.384       .  S
C3291      F3296   1.382       .  S
C3291      F3297   1.383       .  S
C3294      C3947   1.518   1_554  S
C3294      F3298   1.381       .  S
C3294      F3299   1.382       .  S
C3294      F3300   1.384       .  S
C3301      C3632   1.414       .  A
C3301      C3306   1.404       .  A
C3301      C3616   1.495       .  S
C3302      C3303   1.414       .  A
C3302      H3307   1.080       .  S
C3303      C3304   1.413       .  A
C3303      C3603   1.501       .  S
C3304      H3308   1.084       .  S
C3305      C3634   1.402       .  A
C3305      C3306   1.401       .  A
C3305      C3701   1.489       .  S
C3306      H3309   1.082       .  S
C3310      C3311   1.416       .  A
C3310      C3315   1.405       .  A
C3310      C3584   1.482       .  S
C3311      C3642   1.413       .  A
C3311      H3316   1.079       .  S
C3312      C3313   1.401       .  A
C3312      C3568   1.501       .  S
C3313      H3317   1.085       .  S
C3314      C3643   1.388       .  A
C3314      C3315   1.390       .  A
C3314      C3364   1.457       .  S
C3315      H3318   1.084       .  S
C3319      C3320   1.409       .  A
C3319      C3324   1.405       .  A
C3319      C3539   1.487       .  S
C3320      H3325   1.082       .  S
C3321      C3650   1.406       .  A
C3321      C3322   1.409       .  A
C3321      C3552   1.494       .  S
C3322      C3653   1.406       .  A
C3322      H3326   1.084       .  S
C3323      C3324   1.399       .  A
C3323      C3360   1.484       .  S
C3324      H3327   1.083       .  S
C3328      C3329   1.399       .  A
C3328      C3333   1.414       .  A
C3328      C3520   1.484       .  S
C3329      C3330   1.392       .  A
C3329      H3334   1.082       .  S
C3330      C3661   1.400       .  A
C3330      C3398   1.461       .  S
C3331      C3332   1.401       .  A
C3331      H3335   1.085       .  S
C3332      C3504   1.493       .  S
C3333      C3662   1.410       .  A
C3333      H3336   1.083       .  S
C3337      C3338   1.408       .  A
C3337      C3342   1.423       .  A
C3337      C3491   1.520       .  S
C3338      C3339   1.397       .  A
C3338      H3343   1.083       .  S
C3339      C3670   1.393       .  A
C3339      C3726   1.475       .  S
C3340      C3341   1.406       .  A
C3340      H3344   1.083       .  S
C3341      C3475   1.500       .  S
C3342      C3671   1.424       .  A
C3342      H3345   1.078       .  S
C3346      C3347   1.421       .  A
C3346      C3351   1.407       .  A
C3346      C3456   1.491       .  S
C3347      C3678   1.415       .  A
C3347      H3352   1.082       .  S
C3348      C3349   1.390       .  A
C3348      C3440   1.486       .  S
C3349      H3353   1.083       .  S
C3350      C3679   1.385       .  A
C3350      C3351   1.394       .  A
C3350      C3372   1.460       .  S
C3351      H3354   1.084       .  S
O3355     Mg3357   2.123       .  S
O3355     Mg3693   2.152       .  S
O3355      C3390   1.237       .  S
C3356      O3393   1.269       .  A
Mg3357     O3731   2.274       .  S
O3358     Mg3383   2.122       .  S
O3358      C3379   1.234       .  S
O3359      C3390   1.272       .  A
C3360      O3362   1.274       .  A
C3360      O3374   1.276       .  A
O3361      C3389   1.271       .  A
O3361     Mg3363   2.299       .  S
O3362     Mg3394   2.272       .  S
Mg3363     O3369   2.156       .  S
Mg3363     O3377   2.264       .  S
C3364      O3402   1.271       .  A
C3364      O3370   1.272       .  A
O3365      C3372   1.264       .  A
O3365     Mg3693   2.267       .  S
H3366      C3379   1.081       .  S
C3367      H3392   1.081       .  S
C3367      O3381   1.235       .  S
C3367      O3382   1.269       .  A
O3370     Mg3730   2.297       .  S
C3371      O3384   1.274       .  A
C3371      O3376   1.277       .  A
C3372      O3399   1.269       .  A
Mg3373     O3380   2.134       .  S
Mg3373     O3711   2.160       .  S
Mg3373     O3704   2.313       .  S
Mg3373     O3375   2.291       .  S
Mg3373     O3402   2.231       .  S
O3377      C3396   1.267       .  A
O3378      C3398   1.275       .  A
O3380     Mg3724   2.155       .  S
O3380      C3391   1.232       .  S
O3381     Mg3400   2.164       .  S
O3382     Mg3394   2.297       .  S
Mg3383     O3706   2.316       .  S
H3385      C3390   1.081       .  S
H3388      C3391   1.081       .  S
C3396      O3401   1.270       .  A
O3397      C3398   1.267       .  A
C3403      C3407   1.538       .  S
C3403      C3587   1.551       .  S
C3404      H3411   1.086       .  S
C3404      C3405   1.360   1_455  D
C3405      C3406   1.554       .  S
C3405      C3600   1.495       .  S
C3406      C3410   1.554       .  S
C3406      H3412   1.099       .  S
C3407      H3413   1.085       .  S
C3407      C3408   1.380       .  D
C3408      C3507   1.526       .  S
C3409      H3414   1.080       .  S
C3409      C3410   1.367   1_455  D
C3410      C3488   1.502       .  S
C3415      C3419   1.533       .  S
C3415      C3443   1.549       .  S
C3416      H3423   1.082       .  S
C3416      C3417   1.375       .  D
C3417      C3418   1.559       .  S
C3417      C3619   1.517       .  S
C3418      C3422   1.541       .  S
C3418      H3424   1.106       .  S
C3419      H3425   1.084       .  S
C3419      C3420   1.363       .  D
C3420      C3523   1.489       .  S
C3421      H3426   1.085       .  S
C3421      C3422   1.363       .  D
C3422      C3536   1.490       .  S
C3427      C3428   1.526       .  S
C3427      C3433   1.537       .  S
C3427      C3431   1.542       .  S
C3427      C3571   1.556       .  S
C3428      H3435   1.079       .  S
C3428      C3429   1.357       .  D
C3429      C3430   1.549       .  S
C3429      C3555   1.486       .  S
C3430      C3434   1.549       .  S
C3430      C3432   1.563       .  S
C3430      H3436   1.093       .  S
C3431      H3437   1.076       .  S
C3431      C3432   1.384       .  D
C3432      C3459   1.541       .  S
C3433      H3438   1.083       .  S
C3433      C3434   1.365       .  D
C3434      C3472   1.508       .  S
C3439      C3440   1.397       .  A
C3439      C3444   1.411       .  A
C3439      H3446   1.085       .  S
C3440      C3441   1.421       .  A
C3441      C3442   1.401       .  A
C3442      C3443   1.411       .  A
C3442      H3447   1.078   1_565  S
C3443      C3444   1.427       .  A
C3444      C3445   1.512       .  S
C3445      F3449   1.385       .  S
C3445      F3450   1.382       .  S
C3445      F3451   1.378       .  S
C3448      C3771   1.523       .  S
C3448      F3452   1.383       .  S
C3448      F3453   1.380       .  S
C3448      F3454   1.376       .  S
C3455      C3456   1.401       .  A
C3455      C3460   1.418       .  A
C3455      H3462   1.083       .  S
C3456      C3457   1.403       .  A
C3457      C3458   1.404       .  A
C3457      C3464   1.517       .  S
C3458      C3459   1.422       .  A
C3458      H3463   1.078       .  S
C3459      C3460   1.441       .  A
C3460      C3461   1.520       .  S
C3461      F3465   1.385       .  S
C3461      F3466   1.381       .  S
C3461      F3467   1.377       .  S
C3464      F3468   1.378       .  S
C3464      F3469   1.382       .  S
C3464      F3470   1.384       .  S
C3471      C3472   1.404       .  A
C3471      C3476   1.407       .  A
C3471      H3478   1.082       .  S
C3472      C3473   1.426       .  A
C3473      C3474   1.411       .  A
C3473      C3480   1.513       .  S
C3474      C3475   1.404       .  A
C3474      H3479   1.084       .  S
C3475      C3476   1.424       .  A
C3476      C3477   1.519       .  S
C3477      F3481   1.384       .  S
C3477      F3482   1.383       .  S
C3477      F3483   1.383       .  S
C3480      F3484   1.381       .  S
C3480      F3485   1.381       .  S
C3480      F3486   1.385       .  S
C3487      C3488   1.407       .  A
C3487      C3492   1.424       .  A
C3487      H3494   1.083       .  S
C3488      C3489   1.413       .  A
C3489      C3490   1.404       .  A
C3490      C3491   1.412       .  A
C3490      H3495   1.082       .  S
C3491      C3492   1.429       .  A
C3492      C3493   1.518       .  S
C3493      F3497   1.385       .  S
C3493      F3498   1.384       .  S
C3493      F3499   1.381       .  S
C3496      F3500   1.385       .  S
C3496      F3501   1.383       .  S
C3496      F3502   1.372       .  S
C3503      C3504   1.398       .  A
C3503      C3508   1.412       .  A
C3503      H3510   1.082       .  S
C3504      C3505   1.414       .  A
C3505      C3506   1.411       .  A
C3505      C3512   1.519       .  S
C3506      C3507   1.416       .  A
C3506      H3511   1.081       .  S
C3507      C3508   1.434       .  A
C3509      F3513   1.382       .  S
C3509      F3514   1.381       .  S
C3509      F3515   1.369       .  S
C3512      F3516   1.381       .  S
C3512      F3517   1.382       .  S
C3512      F3518   1.385       .  S
C3519      C3520   1.399       .  A
C3519      C3524   1.405       .  A
C3519      H3526   1.083       .  S
C3520      C3521   1.422       .  A
C3521      C3522   1.408       .  A
C3521      C3528   1.520       .  S
C3522      C3523   1.400       .  A
C3522      H3527   1.083       .  S
C3523      C3524   1.416       .  A
C3524      C3525   1.505       .  S
C3525      F3529   1.375       .  S
C3525      F3530   1.381       .  S
C3525      F3531   1.385       .  S
C3528      F3532   1.380       .  S
C3528      F3533   1.384       .  S
C3528      F3534   1.381       .  S
C3535      C3536   1.404       .  A
C3535      C3540   1.399       .  A
C3535      H3542   1.084       .  S
C3536      C3537   1.418       .  A
C3537      C3538   1.414       .  A
C3537      C3544   1.517       .  S
C3538      C3539   1.407       .  A
C3538      H3543   1.083       .  S
C3539      C3540   1.419       .  A
C3541      C3870   1.522       .  S
C3541      F3545   1.384       .  S
C3541      F3546   1.383       .  S
C3541      F3547   1.382       .  S
C3544      F3548   1.382       .  S
C3544      F3549   1.380       .  S
C3544      F3550   1.385       .  S
C3551      C3552   1.399       .  A
C3551      C3556   1.399       .  A
C3551      H3558   1.075       .  S
C3552      C3553   1.421       .  A
C3553      C3554   1.416       .  A
C3553      C3560   1.520       .  S
C3554      C3555   1.405       .  A
C3554      H3559   1.083       .  S
C3555      C3556   1.420       .  A
C3556      C3557   1.519       .  S
C3557      F3561   1.383       .  S
C3557      F3562   1.382       .  S
C3557      F3563   1.371       .  S
C3560      F3564   1.383       .  S
C3560      F3565   1.381       .  S
C3560      F3566   1.384       .  S
C3567      C3568   1.405       .  A
C3567      C3572   1.403       .  A
C3567      H3574   1.082       .  S
C3568      C3569   1.414       .  A
C3569      C3570   1.412       .  A
C3569      C3576   1.521       .  S
C3570      C3571   1.421       .  A
C3570      H3575   1.073       .  S
C3571      C3572   1.434       .  A
C3572      C3573   1.530       .  S
C3573      F3577   1.382       .  S
C3573      F3578   1.379       .  S
C3573      F3579   1.375       .  S
C3576      F3580   1.384       .  S
C3576      F3581   1.381       .  S
C3576      F3582   1.385       .  S
C3583      C3584   1.399       .  A
C3583      C3588   1.407       .  A
C3583      H3590   1.085       .  S
C3584      C3585   1.416       .  A
C3585      C3586   1.404       .  A
C3585      C3592   1.519       .  S
C3586      C3587   1.413       .  A
C3586      H3591   1.083       .  S
C3587      C3588   1.429       .  A
C3588      C3589   1.513       .  S
C3589      F3593   1.385       .  S
C3589      F3594   1.381       .  S
C3589      F3595   1.377       .  S
C3592      F3596   1.383       .  S
C3592      F3597   1.383       .  S
C3592      F3598   1.383       .  S
C3599      C3600   1.406       .  A
C3599      C3604   1.420       .  A
C3599      H3606   1.083       .  S
C3600      C3601   1.426       .  A
C3601      C3602   1.398       .  A
C3602      C3603   1.402       .  A
C3602      H3607   1.086       .  S
C3603      C3604   1.423       .  A
C3604      C3605   1.517       .  S
C3605      F3609   1.385       .  S
C3605      F3610   1.380       .  S
C3605      F3611   1.381       .  S
C3608      F3612   1.383       .  S
C3608      F3613   1.377       .  S
C3608      F3614   1.385       .  S
C3615      C3616   1.401       .  A
C3615      C3620   1.406       .  A
C3615      H3622   1.085       .  S
C3616      C3617   1.415       .  A
C3617      C3618   1.417       .  A
C3617      C3954   1.518       .  S
C3618      C3619   1.412       .  A
C3618      H3623   1.076       .  S
C3619      C3620   1.429       .  A
C3620      C3621   1.521       .  S
C3621      F3625   1.384       .  S
C3621      F3626   1.382       .  S
C3621      F3627   1.383       .  S
C3624      F3628   1.381       .  S
C3624      F3629   1.382       .  S
C3624      F3630   1.385       .  S
C3631      C3636   1.405   1_556  A
C3631      C3946   1.496       .  S
C3632      C3633   1.416       .  A
C3632      H3637   1.080       .  S
C3633      C3634   1.413       .  A
C3633      C3933   1.502       .  S
C3634      H3638   1.084       .  S
C3635      C3636   1.401       .  A
C3636      H3639   1.082   1_554  S
C3640      C3641   1.417       .  A
C3640      C3645   1.407       .  A
C3640      C3914   1.487       .  S
C3641      H3646   1.079       .  S
C3642      C3643   1.401       .  A
C3642      C3898   1.500       .  S
C3643      H3647   1.085       .  S
C3644      C3645   1.391       .  A
C3644      C3694   1.459       .  S
C3645      H3648   1.084       .  S
C3649      C3650   1.409       .  A
C3649      C3654   1.409       .  A
C3649      C3869   1.488       .  S
C3650      H3655   1.081       .  S
C3651      C3652   1.409       .  A
C3651      C3882   1.493       .  S
C3652      H3656   1.084       .  S
C3653      C3654   1.401       .  A
C3653      C3690   1.486       .  S
C3654      H3657   1.083       .  S
C3658      C3659   1.400       .  A
C3658      C3663   1.415       .  A
C3658      C3850   1.484       .  S
C3659      C3660   1.392       .  A
C3659      H3664   1.083       .  S
C3660      C3728   1.462       .  S
C3661      C3662   1.401       .  A
C3661      H3665   1.085       .  S
C3662      C3834   1.491       .  S
C3663      H3666   1.083       .  S
C3667      C3668   1.409       .  A
C3667      C3672   1.423   1_556  A
C3667      C3821   1.523       .  S
C3668      C3669   1.397   1_556  A
C3668      H3673   1.083       .  S
C3670      C3671   1.407       .  A
C3670      H3674   1.083       .  S
C3671      C3805   1.502       .  S
C3672      H3675   1.077       .  S
C3676      C3677   1.423       .  A
C3676      C3681   1.407       .  A
C3676      C3786   1.492       .  S
C3677      H3682   1.081   1_556  S
C3678      C3679   1.390       .  A
C3678      C3770   1.488       .  S
C3679      H3683   1.083       .  S
C3680      C3681   1.394       .  A
C3680      C3702   1.458       .  S
C3681      H3684   1.084       .  S
O3685     Mg3687   2.118       .  S
O3685      C3720   1.236       .  S
C3686      O3723   1.268       .  A
O3688     Mg3713   2.126       .  S
O3688      C3709   1.235       .  S
O3689      C3720   1.272       .  A
C3690      O3692   1.275       .  A
C3690      O3704   1.276       .  A
O3691      C3719   1.271       .  A
O3691     Mg3693   2.299       .  S
O3692     Mg3724   2.282       .  S
Mg3693     O3699   2.157       .  S
Mg3693     O3707   2.265       .  S
C3694      O3732   1.272       .  A
C3694      O3700   1.272   1_556  A
O3695      C3702   1.264       .  A
H3696      C3709   1.081       .  S
C3697      H3722   1.081       .  S
C3697      O3711   1.235       .  S
C3697      O3712   1.269       .  A
C3701      O3714   1.274       .  A
C3701      O3706   1.277       .  A
C3702      O3729   1.270       .  A
Mg3703     O3710   2.140       .  S
Mg3703     O3705   2.291       .  S
Mg3703     O3732   2.240       .  S
O3707      C3726   1.267       .  A
O3708      C3728   1.275       .  A
O3710      C3721   1.232       .  S
O3711     Mg3730   2.167       .  S
O3712     Mg3724   2.298       .  S
H3715      C3720   1.081       .  S
H3718      C3721   1.081       .  S
C3726      O3731   1.271       .  A
O3727      C3728   1.266       .  A
C3733      C3737   1.538       .  S
C3733      C3917   1.552       .  S
C3734      H3741   1.086       .  S
C3734      C3735   1.359   1_455  D
C3735      C3736   1.555       .  S
C3735      C3930   1.498       .  S
C3736      C3740   1.557       .  S
C3736      H3742   1.100       .  S
C3737      H3743   1.086       .  S
C3737      C3738   1.379       .  D
C3738      C3837   1.524       .  S
C3739      H3744   1.081       .  S
C3739      C3740   1.367   1_455  D
C3740      C3818   1.503       .  S
C3745      C3749   1.536       .  S
C3745      C3773   1.552       .  S
C3746      H3753   1.081       .  S
C3746      C3747   1.376       .  D
C3747      C3748   1.560       .  S
C3747      C3949   1.519       .  S
C3748      C3752   1.542       .  S
C3748      H3754   1.107       .  S
C3749      H3755   1.085       .  S
C3749      C3750   1.364       .  D
C3750      C3853   1.491       .  S
C3751      H3756   1.085       .  S
C3751      C3752   1.363       .  D
C3752      C3866   1.491       .  S
C3757      C3758   1.526       .  S
C3757      C3763   1.537       .  S
C3757      C3761   1.542       .  S
C3757      C3901   1.556       .  S
C3758      H3765   1.079       .  S
C3758      C3759   1.357       .  D
C3759      C3760   1.551       .  S
C3759      C3885   1.486       .  S
C3760      C3764   1.550       .  S
C3760      C3762   1.564       .  S
C3760      H3766   1.094       .  S
C3761      H3767   1.077       .  S
C3761      C3762   1.385       .  D
C3762      C3789   1.542       .  S
C3763      H3768   1.084       .  S
C3763      C3764   1.365       .  D
C3764      C3802   1.509       .  S
C3769      C3770   1.396       .  A
C3769      C3774   1.412       .  A
C3769      H3776   1.085       .  S
C3770      C3771   1.421       .  A
C3771      C3772   1.403       .  A
C3772      C3773   1.412       .  A
C3772      H3777   1.079   1_565  S
C3773      C3774   1.427       .  A
C3774      C3775   1.511       .  S
C3775      F3779   1.385       .  S
C3775      F3780   1.382       .  S
C3775      F3781   1.378       .  S
C3778      F3782   1.383       .  S
C3778      F3783   1.380       .  S
C3778      F3784   1.377       .  S
C3785      C3786   1.402       .  A
C3785      C3790   1.419       .  A
C3785      H3792   1.083       .  S
C3786      C3787   1.403       .  A
C3787      C3788   1.404       .  A
C3787      C3794   1.517       .  S
C3788      C3789   1.421       .  A
C3788      H3793   1.078       .  S
C3789      C3790   1.441       .  A
C3790      C3791   1.520       .  S
C3791      F3795   1.385       .  S
C3791      F3796   1.381       .  S
C3791      F3797   1.377       .  S
C3794      F3798   1.378       .  S
C3794      F3799   1.382       .  S
C3794      F3800   1.384       .  S
C3801      C3802   1.403       .  A
C3801      C3806   1.408       .  A
C3801      H3808   1.082       .  S
C3802      C3803   1.425       .  A
C3803      C3804   1.412       .  A
C3803      C3810   1.513       .  S
C3804      C3805   1.404       .  A
C3804      H3809   1.084       .  S
C3805      C3806   1.425       .  A
C3806      C3807   1.518       .  S
C3807      F3811   1.384       .  S
C3807      F3812   1.383       .  S
C3807      F3813   1.383       .  S
C3810      F3814   1.381       .  S
C3810      F3815   1.380       .  S
C3810      F3816   1.385       .  S
C3817      C3818   1.406       .  A
C3817      C3822   1.424       .  A
C3817      H3824   1.083       .  S
C3818      C3819   1.413       .  A
C3819      C3820   1.404       .  A
C3820      C3821   1.413       .  A
C3820      H3825   1.082       .  S
C3821      C3822   1.430       .  A
C3822      C3823   1.517       .  S
C3823      F3827   1.385       .  S
C3823      F3828   1.383       .  S
C3823      F3829   1.382       .  S
C3826      F3830   1.385       .  S
C3826      F3831   1.383       .  S
C3826      F3832   1.373       .  S
C3833      C3834   1.398       .  A
C3833      C3838   1.413       .  A
C3833      H3840   1.083       .  S
C3834      C3835   1.413       .  A
C3835      C3836   1.409       .  A
C3835      C3842   1.518       .  S
C3836      C3837   1.414       .  A
C3836      H3841   1.082       .  S
C3837      C3838   1.435       .  A
C3839      F3843   1.383       .  S
C3839      F3844   1.380       .  S
C3839      F3845   1.369       .  S
C3842      F3846   1.382       .  S
C3842      F3847   1.382       .  S
C3842      F3848   1.384       .  S
C3849      C3850   1.399       .  A
C3849      C3854   1.405       .  A
C3849      H3856   1.083       .  S
C3850      C3851   1.422       .  A
C3851      C3852   1.409       .  A
C3851      C3858   1.520       .  S
C3852      C3853   1.400       .  A
C3852      H3857   1.083       .  S
C3853      C3854   1.417       .  A
C3854      C3855   1.505       .  S
C3855      F3859   1.375       .  S
C3855      F3860   1.381       .  S
C3855      F3861   1.385       .  S
C3858      F3862   1.379       .  S
C3858      F3863   1.384       .  S
C3858      F3864   1.381       .  S
C3865      C3866   1.404       .  A
C3865      C3870   1.398       .  A
C3865      H3872   1.085       .  S
C3866      C3867   1.418       .  A
C3867      C3868   1.415       .  A
C3867      C3874   1.517       .  S
C3868      C3869   1.409       .  A
C3868      H3873   1.083       .  S
C3869      C3870   1.418       .  A
C3871      F3875   1.384       .  S
C3871      F3876   1.383   1_554  S
C3871      F3877   1.382       .  S
C3874      F3878   1.382       .  S
C3874      F3879   1.380       .  S
C3874      F3880   1.385       .  S
C3881      C3882   1.399       .  A
C3881      C3886   1.399       .  A
C3881      H3888   1.076   1_556  S
C3882      C3883   1.421       .  A
C3883      C3884   1.416       .  A
C3883      C3890   1.519       .  S
C3884      C3885   1.406       .  A
C3884      H3889   1.083       .  S
C3885      C3886   1.421       .  A
C3886      C3887   1.519       .  S
C3887      F3891   1.383       .  S
C3887      F3892   1.382       .  S
C3887      F3893   1.371       .  S
C3890      F3894   1.383       .  S
C3890      F3895   1.381       .  S
C3890      F3896   1.384       .  S
C3897      C3898   1.405       .  A
C3897      C3902   1.403       .  A
C3897      H3904   1.082       .  S
C3898      C3899   1.414       .  A
C3899      C3900   1.411       .  A
C3899      C3906   1.520       .  S
C3900      C3901   1.421       .  A
C3900      H3905   1.074       .  S
C3901      C3902   1.434       .  A
C3902      C3903   1.530       .  S
C3903      F3907   1.382       .  S
C3903      F3908   1.379       .  S
C3903      F3909   1.375       .  S
C3906      F3910   1.384       .  S
C3906      F3911   1.381       .  S
C3906      F3912   1.385       .  S
C3913      C3914   1.401       .  A
C3913      C3918   1.409       .  A
C3913      H3920   1.085       .  S
C3914      C3915   1.418       .  A
C3915      C3916   1.404       .  A
C3915      C3922   1.519       .  S
C3916      C3917   1.411       .  A
C3916      H3921   1.083       .  S
C3917      C3918   1.428       .  A
C3918      C3919   1.513       .  S
C3919      F3923   1.385       .  S
C3919      F3924   1.381       .  S
C3919      F3925   1.378       .  S
C3922      F3926   1.383       .  S
C3922      F3927   1.383       .  S
C3922      F3928   1.383       .  S
C3929      C3930   1.406       .  A
C3929      C3934   1.421       .  A
C3929      H3936   1.083       .  S
C3930      C3931   1.427       .  A
C3931      C3932   1.400       .  A
C3932      C3933   1.402       .  A
C3932      H3937   1.085       .  S
C3933      C3934   1.423       .  A
C3934      C3935   1.517       .  S
C3935      F3939   1.385       .  S
C3935      F3940   1.380       .  S
C3935      F3941   1.381       .  S
C3938      F3942   1.383       .  S
C3938      F3943   1.377       .  S
C3938      F3944   1.385       .  S
C3945      C3946   1.401       .  A
C3945      C3950   1.406       .  A
C3945      H3952   1.085       .  S
C3946      C3947   1.415       .  A
C3947      C3948   1.418       .  A
C3948      C3949   1.412       .  A
C3948      H3953   1.076       .  S
C3949      C3950   1.429       .  A
C3950      C3951   1.521       .  S
C3951      F3955   1.384       .  S
C3951      F3956   1.382       .  S
C3951      F3957   1.383       .  S
C3954      F3958   1.381       .  S
C3954      F3959   1.382       .  S
C3954      F3960   1.385       .  S
