geometry optimzed in LAMMPS
_audit_creation_date              2020-11-30 
_audit_creation_method            'lammps2cif' 
_symmetry_space_group_name_H-M    'P1' 
_symmetry_Int_Tables_number       1 
_symmetry_cell_setting            triclinic 
loop_ 
_symmetry_equiv_pos_as_xyz 
  x,y,z 
_cell_length_a                    27.87429581 
_cell_length_b                    27.91938605806337 
_cell_length_c                    27.102720533741895 
_cell_angle_alpha                 89.97629144142847 
_cell_angle_beta                  90.04211238145547 
_cell_angle_gamma                 120.33584320977897 
loop_ 
_atom_site_label 
_atom_site_type_symbol 
_atom_site_fract_x 
_atom_site_fract_y 
_atom_site_fract_z 
_atom_site_charge 
O1          O  0.40015725  0.24032045  0.55827549    -0.80100
C2          C  0.27845410  0.05717115  0.43094057     0.99300
O3          O  0.31803663  0.06390800  0.45860353    -0.69200
O4          O  0.40531811  0.16197910  0.43968337    -0.72800
Al5        Al  0.36898373  0.12731097  0.49884057     1.49000
C6          C  0.43206252  0.21342452  0.43147917     0.94600
O7          O  0.32790498  0.23610922  0.43912111    -0.79000
O8          O  0.24802308  0.15162668  0.55697871    -0.72500
Al9        Al  0.36226825  0.23442002  0.49860341     1.90100
O10         O  0.24283116  0.17070674  0.45713871    -0.71600
O11         O  0.24940937  0.05966302  0.53818716    -0.71500
O12         O  0.25371934  0.08380009  0.43853098    -0.77100
O13         O  0.33642801  0.08939734  0.55815200    -0.75300
O14         O  0.32857800  0.16052420  0.49838918    -1.11500
O15         O  0.42941309  0.18299517  0.53902015    -0.70600
C16         C  0.43164447  0.22094470  0.56622015     1.00100
C17         C  0.27644059  0.21121397  0.43056074     0.96500
Al18       Al  0.25454202  0.11977818  0.49774995     1.55600
O19         O  0.42554775  0.24673633  0.45850259    -0.75300
C20         C  0.28519178  0.05788249  0.56578733     1.00600
C21         C  0.26812854  0.20262869  0.56537037     0.95500
O22         O  0.30657500  0.23879748  0.53853185    -0.80600
N23         N  0.16081500  0.15934435  0.07385625    -0.34900
N24         N  0.12261226  0.20761987  0.99921595    -0.55400
N25         N  0.17140966  0.17017828  0.92347597    -0.34900
N26         N  0.20811983  0.12043433  0.99794453    -0.55400
C27         C  0.14115658  0.18457139  0.10359018     0.28700
C28         C  0.18590049  0.13907829  0.10302828     0.28700
C29         C  0.14433824  0.18844093  0.89445725     0.28700
C30         C  0.18954671  0.14342577  0.89387633     0.28700
C31         C  0.10292272  0.22094929  0.03921818     0.37300
C32         C  0.10597875  0.22424956  0.95927914     0.37300
C33         C  0.22183187  0.10096419  0.03785245     0.37300
C34         C  0.22582068  0.10496035  0.95793033     0.37300
C35         C  0.15198703  0.17816163  0.15236181    -0.20100
C36         C  0.18013201  0.14978561  0.15203001    -0.20100
C37         C  0.14622054  0.17385325  0.84582772    -0.20100
C38         C  0.17451802  0.14560981  0.84548679    -0.20100
C39         C  0.07260904  0.24541754  0.02460794    -0.21200
C40         C  0.07440399  0.24728655  0.97393236    -0.21200
C41         C  0.24739630  0.07177696  0.02304138    -0.21200
C42         C  0.25005187  0.07439380  0.97240075    -0.21200
C43         C  0.11334051  0.21294918  0.08866172    -0.16500
C44         C  0.21359762  0.11081524  0.08743148    -0.16500
C45         C  0.21930234  0.11693897  0.90856080    -0.16500
C46         C  0.11772255  0.21782831  0.90981292    -0.16500
H47         H  0.14023505  0.19180079  0.18514580     0.16400
H48         H  0.19421647  0.13800207  0.18456301     0.16400
H49         H  0.12835318  0.18191178  0.81367270     0.16400
H50         H  0.18230917  0.12794322  0.81308441     0.16400
H51         H  0.05103236  0.25986849  0.04795314     0.14600
H52         H  0.05386614  0.26270721  0.95047550     0.14600
H53         H  0.26230218  0.05061338  0.04632317     0.14600
H54         H  0.26704815  0.05527119  0.94893478     0.14600
H55         H  0.15490896  0.15362010  0.03638007     0.27900
H56         H  0.18122137  0.17980522  0.96022216     0.27900
N57         N  0.32484136  0.49679021  0.07377185    -0.34900
N58         N  0.37342208  0.08319929  0.99813946    -0.55400
N59         N  0.33792554  0.49648688  0.92371337    -0.34900
N60         N  0.29039890  0.41008707  0.99957821    -0.55400
C61         C  0.35007237  0.04234076  0.10267487     0.28700
C62         C  0.30711498  0.45190277  0.10347168     0.28700
C63         C  0.35618096  0.04150771  0.89381642     0.28700
C64         C  0.31224015  0.45091024  0.89458034     0.28700
C65         C  0.38768340  0.11671326  0.03789548     0.37300
C66         C  0.39291277  0.11640494  0.95816061     0.37300
C67         C  0.27125936  0.37683568  0.03959888     0.37300
C68         C  0.27584833  0.37660780  0.95974165     0.37300
C69         C  0.34778919  0.02601075  0.15142744    -0.20100
C70         C  0.32146066  0.46933320  0.15192732    -0.20100
C71         C  0.34446789  0.02420130  0.84508856    -0.20100
C72         C  0.31684609  0.46744070  0.84565745    -0.20100
C73         C  0.41755035  0.17173475  0.02321588    -0.21200
C74         C  0.42089378  0.17150502  0.97266660    -0.21200
C75         C  0.24547074  0.32173854  0.02523308    -0.21200
C76         C  0.24840600  0.32161341  0.97463311    -0.21200
C77         C  0.37528705  0.09842424  0.08725358    -0.16500
C78         C  0.27736394  0.39546044  0.08888015    -0.16500
C79         C  0.28431020  0.39467414  0.91012883    -0.16500
C80         C  0.38342914  0.09789375  0.90874803    -0.16500
H81         H  0.36448950  0.05217251  0.18367488     0.16400
H82         H  0.31351479  0.44387500  0.18442403     0.16400
H83         H  0.35501226  0.04970350  0.81235064     0.16400
H84         H  0.30185029  0.44145507  0.81318998     0.16400
H85         H  0.43587087  0.20812164  0.04653405     0.14600
H86         H  0.44168918  0.20762790  0.94923116     0.14600
H87         H  0.22700516  0.28550840  0.04876084     0.14600
H88         H  0.23210071  0.28527151  0.95140358     0.14600
H89         H  0.31501360  0.49627857  0.03690644     0.27900
H90         H  0.34492168  0.49685090  0.96113969     0.27900
N91         N  0.49798755  0.33238277  0.07305607    -0.34900
N92         N  0.08494204  0.37006366  0.99831380    -0.55400
N93         N  0.49764149  0.32156881  0.92245232    -0.34500
N94         N  0.41108471  0.28600577  0.99710966    -0.55400
C95         C  0.04361901  0.35181731  0.10276920     0.28700
C96         C  0.45238819  0.30762874  0.10221321     0.28700
C97         C  0.04348764  0.34706532  0.89352155     0.28700
C98         C  0.45251062  0.30315065  0.89284708     0.28700
C99         C  0.11838308  0.38909070  0.03826745     0.37300
C100        C  0.11828194  0.38543131  0.95835329     0.37300
C101        C  0.37776046  0.27201743  0.03704684     0.37300
C102        C  0.37766996  0.26831278  0.95709764     0.37300
C103        C  0.02637555  0.34091524  0.15153907    -0.20100
C104        C  0.46904927  0.31338854  0.15120483    -0.20100
C105        C  0.02690859  0.34437532  0.84476837    -0.20100
C106        C  0.46977787  0.31685949  0.84428426    -0.20100
C107        C  0.17346324  0.41795035  0.02354902    -0.21200
C108        C  0.17346355  0.41561846  0.97290587    -0.21200
C109        C  0.32263340  0.24626744  0.02226583    -0.21200
C110        C  0.32267401  0.24415176  0.97160914    -0.21200
C111        C  0.10007922  0.37887396  0.08778718    -0.16500
C112        C  0.39605190  0.28002697  0.08661540    -0.16500
C113        C  0.39603279  0.27410652  0.90770955    -0.16500
C114        C  0.09977583  0.37325813  0.90897168    -0.16500
H115        H  0.05198968  0.35213458  0.18428035     0.16400
H116        H  0.44309917  0.29954419  0.18375386     0.16400
H117        H  0.05299562  0.36133348  0.81250107     0.16400
H118        H  0.44414312  0.30847942  0.81179958     0.16400
H119        H  0.20972596  0.43874278  0.04690478     0.14600
H120        H  0.20983716  0.43458888  0.94948457     0.14600
H121        H  0.28623103  0.23070790  0.04551039     0.14600
H122        H  0.28651465  0.22749303  0.94807392     0.14600
H123        H  0.49815213  0.33804287  0.03546995     0.27900
H124        H  0.49739661  0.31259350  0.95946114     0.27900
C125        C  0.46609867  0.23326462  0.38641559     0.04000
C126        C  0.02506154  0.26615859  0.38615329     0.04000
C127        C  0.05334120  0.28032738  0.34076064    -0.16500
C128        C  0.02429347  0.26135845  0.29634529     0.04000
C129        C  0.46587513  0.22981336  0.29662678     0.04000
C130        C  0.43729444  0.21599727  0.34141610    -0.16500
H131        H  0.39230880  0.19040168  0.34134832     0.06000
H132        H  0.09844100  0.30387766  0.34017040     0.06000
C133        C  0.22249989  0.25045726  0.38618898     0.04000
C134        C  0.25679767  0.22630486  0.38579934     0.04000
C135        C  0.27519145  0.21720515  0.34038028    -0.16500
C136        C  0.26104804  0.23246179  0.29600427     0.04000
C137        C  0.22763147  0.25684901  0.29634846     0.04000
C138        C  0.20760853  0.26454914  0.34113097    -0.16500
H139        H  0.18289512  0.28459920  0.34115157     0.06000
H140        H  0.30185517  0.19930743  0.33967354     0.06000
C141        C  0.46671636  0.23856388  0.61097151     0.04000
C142        C  0.02549290  0.26334803  0.61059850     0.04000
C143        C  0.05443068  0.27441915  0.65553904    -0.16500
C144        C  0.02613145  0.26048131  0.70047591     0.04000
C145        C  0.46787128  0.23496111  0.70088995     0.04000
C146        C  0.43873753  0.22537237  0.65653189    -0.16500
H147        H  0.39369677  0.20465886  0.65731708     0.06000
H148        H  0.09926567  0.29270644  0.65544028     0.06000
C149        C  0.25124911  0.21961830  0.61059662     0.04000
C150        C  0.22749543  0.25425098  0.61110001     0.04000
C151        C  0.21833080  0.27245353  0.65662653    -0.16500
C152        C  0.23308260  0.25773595  0.70100497     0.04000
C153        C  0.25683901  0.22377623  0.70051198     0.04000
C154        C  0.26468922  0.20403724  0.65562659    -0.16500
H155        H  0.28447031  0.17908321  0.65553074     0.06000
H156        H  0.20085718  0.29946314  0.65742269     0.06000
C157        C  0.23488806  0.46461131  0.61041429     0.04000
C158        C  0.26751982  0.02337043  0.61067425     0.04000
C159        C  0.28154675  0.05177133  0.65603861    -0.16500
C160        C  0.26286299  0.02291119  0.70058225     0.04000
C161        C  0.23163704  0.46459314  0.70021276     0.04000
C162        C  0.21799788  0.43596151  0.65545201    -0.16500
H163        H  0.19292131  0.39100022  0.65558182     0.06000
H164        H  0.30492683  0.09679243  0.65650849     0.06000
C165        C  0.24124858  0.46447551  0.38592576     0.04000
C166        C  0.26473418  0.02289336  0.38597286     0.04000
C167        C  0.27471471  0.05104919  0.34078866    -0.16500
C168        C  0.26108371  0.02221463  0.29611959     0.04000
C169        C  0.23745407  0.46443846  0.29593465     0.04000
C170        C  0.22882975  0.43606276  0.34056252    -0.16500
H171        H  0.20916595  0.39117081  0.34015388     0.06000
H172        H  0.29191435  0.09566138  0.34046993     0.06000
O173        O  0.24322279  0.39866020  0.43920253    -0.80100
C174        C  0.05933959  0.27691137  0.56546168     0.99300
O175        O  0.06592000  0.31640334  0.53783692    -0.69200
O176        O  0.16385644  0.40383567  0.55685522    -0.72800
Al177      Al  0.12944948  0.36735689  0.49769312     1.49000
C178        C  0.21530264  0.43040467  0.56543452     0.94600
O179        O  0.23772350  0.32579223  0.55821914    -0.79000
O180        O  0.15396464  0.24694453  0.43939936    -0.72500
Al181      Al  0.23668112  0.36050101  0.49872925     1.90100
O182        O  0.17273536  0.24100385  0.53918806    -0.71600
O183        O  0.06161550  0.24802546  0.45841648    -0.71500
O184        O  0.08594949  0.25217943  0.55779313    -0.77100
O185        O  0.09172777  0.33488066  0.43832246    -0.75300
O186        O  0.16271340  0.32700616  0.49837763    -1.11500
O187        O  0.18533861  0.42756120  0.45763798    -0.70600
C188        C  0.22364684  0.42986517  0.43084415     1.00100
C189        C  0.21284011  0.27432564  0.56633394     0.96500
Al190      Al  0.12189215  0.25307596  0.49867310     1.55600
O191        O  0.24878608  0.42349921  0.53897213    -0.75300
C192        C  0.05986955  0.28376258  0.43085375     1.00600
C193        C  0.20512456  0.26697358  0.43138222     0.95500
O194        O  0.24118614  0.30501994  0.45864524    -0.80600
C195        C  0.35483629  0.24998659  0.86871592    -0.16800
C196        C  0.32688800  0.23302686  0.83187565     0.07300
C197        C  0.29997069  0.21912371  0.78558415     0.09200
C198        C  0.27926803  0.21527206  0.74563017    -0.17600
C199        C  0.21019885  0.43439479  0.74561429    -0.16800
C200        C  0.19190142  0.41651498  0.78589312     0.07300
C201        C  0.16784996  0.40197692  0.83304540     0.09200
C202        C  0.14092183  0.39026198  0.87033711    -0.17600
C203        C  0.14125893  0.39485429  0.12669149    -0.16800
C204        C  0.16893051  0.40514351  0.16364318     0.07300
C205        C  0.19536341  0.41763258  0.21017410     0.09200
C206        C  0.21563037  0.43406120  0.25037783    -0.17600
C207        C  0.28445012  0.22731262  0.25025178    -0.16800
C208        C  0.30349399  0.23029604  0.20978900     0.07300
C209        C  0.32770654  0.24138493  0.16257032     0.09200
C210        C  0.35464436  0.25670685  0.12522874    -0.17600
C211        C  0.43569508  0.20776678  0.25119958    -0.16800
C212        C  0.41774104  0.18944120  0.21089257     0.07300
C213        C  0.40302169  0.16587340  0.16351309     0.09200
C214        C  0.39150879  0.13944031  0.12592312    -0.17600
C215        C  0.39968169  0.13889815  0.86990266    -0.16800
C216        C  0.40995361  0.16665615  0.83315430     0.07300
C217        C  0.42207742  0.19294927  0.78675615     0.09200
C218        C  0.43810373  0.21306009  0.74654723    -0.17600
C219        C  0.22849174  0.28134474  0.74693551    -0.16800
C220        C  0.23230251  0.30075493  0.78741463     0.07300
C221        C  0.24451865  0.32582840  0.83437832     0.09200
C222        C  0.26048242  0.35319879  0.87150457    -0.17600
C223        C  0.21962732  0.27971179  0.25127810    -0.16800
C224        C  0.22305457  0.30046690  0.21144349     0.07300
C225        C  0.23605513  0.32694921  0.16499112     0.09200
C226        C  0.25284320  0.35460706  0.12801907    -0.17600
C227        C  0.05420140  0.26872524  0.25086897    -0.16800
C228        C  0.07131878  0.26545429  0.21096173     0.07300
C229        C  0.08501713  0.25306502  0.16449210     0.09200
C230        C  0.09632098  0.23683455  0.12756103    -0.17600
C231        C  0.05608188  0.26735936  0.74592629    -0.16800
C232        C  0.07320050  0.26544692  0.78626791     0.07300
C233        C  0.08742403  0.25523489  0.83343416     0.09200
C234        C  0.09956123  0.24068379  0.87093730    -0.17600
C235        C  0.27042917  0.05293880  0.74614175    -0.16800
C236        C  0.26813464  0.07100728  0.78594293     0.07300
C237        C  0.25735448  0.08655500  0.83236646     0.09200
C238        C  0.24234763  0.09917482  0.86938962    -0.17600
C239        C  0.26647864  0.05124705  0.25057245    -0.16800
C240        C  0.26333129  0.06749222  0.21025261     0.07300
C241        C  0.25187440  0.08083165  0.16330021     0.09200
C242        C  0.23663236  0.09263514  0.12607190    -0.17600
O243        O  0.39993575  0.74042344  0.55841539    -0.80100
C244        C  0.27836698  0.55735002  0.43091782     0.99300
O245        O  0.31793742  0.56409715  0.45861098    -0.69200
O246        O  0.40525985  0.66224119  0.43977591    -0.72800
Al247      Al  0.36885650  0.62750944  0.49889523     1.49000
C248        C  0.43202586  0.71369988  0.43160843     0.94600
O249        O  0.32774234  0.73629846  0.43923425    -0.79000
O250        O  0.24775132  0.65153751  0.55695771    -0.72500
Al251      Al  0.36206699  0.73456243  0.49872727     1.90100
O252        O  0.24266888  0.67081660  0.45714010    -0.71600
O253        O  0.24924311  0.55969842  0.53807502    -0.71500
O254        O  0.25366643  0.58401959  0.43844566    -0.77100
O255        O  0.33624002  0.58958642  0.55821986    -0.75300
O256        O  0.32842314  0.66067680  0.49841930    -1.11500
O257        O  0.42926996  0.68318923  0.53908307    -0.70600
C258        C  0.43147601  0.72109873  0.56631635     1.00100
C259        C  0.27629826  0.71132704  0.43058016     0.96500
Al260      Al  0.25438348  0.61986444  0.49769865     1.55600
O261        O  0.42541929  0.74698339  0.45860505    -0.75300
C262        C  0.28499456  0.55801102  0.56579147     1.00600
C263        C  0.26783385  0.70249957  0.56548756     0.95500
O264        O  0.30628189  0.73877539  0.53870645    -0.80600
N265        N  0.16094995  0.65983225  0.07404985    -0.34900
N266        N  0.12281368  0.70817260  0.99935943    -0.55400
N267        N  0.17157739  0.67060633  0.92365715    -0.34900
N268        N  0.20823479  0.62081606  0.99814952    -0.55400
C269        C  0.14115115  0.68494234  0.10376478     0.28700
C270        C  0.18589835  0.63943494  0.10323627     0.28700
C271        C  0.14450551  0.68886581  0.89462640     0.28700
C272        C  0.18971024  0.64382201  0.89408364     0.28700
C273        C  0.10309529  0.72148071  0.03935514     0.37300
C274        C  0.10608302  0.72468182  0.95940372     0.37300
C275        C  0.22208329  0.60150730  0.03808471     0.37300
C276        C  0.22602946  0.60540508  0.95815567     0.37300
C277        C  0.15171773  0.67828969  0.15255208    -0.20100
C278        C  0.17988128  0.64992184  0.15224261    -0.20100
C279        C  0.14640955  0.67426057  0.84601212    -0.20100
C280        C  0.17469128  0.64600306  0.84569656    -0.20100
C281        C  0.07267183  0.74582679  0.02472452    -0.21200
C282        C  0.07441390  0.74762323  0.97404251    -0.21200
C283        C  0.24783320  0.57247740  0.02331184    -0.21200
C284        C  0.25045848  0.57503222  0.97266757    -0.21200
C285        C  0.11346717  0.71345251  0.08880966    -0.16500
C286        C  0.21376794  0.61132612  0.08765521    -0.16500
C287        C  0.21942484  0.61727529  0.90876910    -0.16500
C288        C  0.11779832  0.71819697  0.90993548    -0.16500
H289        H  0.13979185  0.69178213  0.18532502     0.16400
H290        H  0.19383110  0.63801202  0.18478643     0.16400
H291        H  0.12853484  0.68228618  0.81384616     0.16400
H292        H  0.18245372  0.62829815  0.81330852     0.16400
H293        H  0.05100471  0.76018492  0.04805865     0.14600
H294        H  0.05375567  0.76290535  0.95057613     0.14600
H295        H  0.26287828  0.55145060  0.04661740     0.14600
H296        H  0.26758765  0.55601424  0.94922927     0.14600
H297        H  0.15532571  0.65437125  0.03650227     0.27900
H298        H  0.18135812  0.68021929  0.96043666     0.27900
N299        N  0.32440005  0.99675147  0.07358700    -0.34900
N300        N  0.37392830  0.58323029  0.99831059    -0.55400
N301        N  0.33740998  0.99648214  0.92349049    -0.34900
N302        N  0.29015803  0.91008393  0.99934544    -0.55400
C303        C  0.35071290  0.54238522  0.10282734     0.28700
C304        C  0.30654777  0.95184526  0.10328308     0.28700
C305        C  0.35659076  0.54150546  0.89402867     0.28700
C306        C  0.31186378  0.95091426  0.89434384     0.28700
C307        C  0.38803537  0.61674497  0.03805494     0.37300
C308        C  0.39331784  0.61644201  0.95832600     0.37300
C309        C  0.27129543  0.87681509  0.03936656     0.37300
C310        C  0.27583028  0.87663247  0.95950765     0.37300
C311        C  0.34873564  0.52608623  0.15155333    -0.20100
C312        C  0.32056552  0.96925851  0.15177856    -0.20100
C313        C  0.34466826  0.52418036  0.84532138    -0.20100
C314        C  0.31664158  0.96745228  0.84541142    -0.20100
C315        C  0.41769513  0.67177805  0.02336691    -0.21200
C316        C  0.42108095  0.67155320  0.97281837    -0.21200
C317        C  0.24596089  0.82173944  0.02500012    -0.21200
C318        C  0.24885410  0.82164674  0.97439782    -0.21200
C319        C  0.37571401  0.59844499  0.08741170    -0.16500
C320        C  0.27711192  0.89540111  0.08864097    -0.16500
C321        C  0.28404820  0.89468692  0.90989900    -0.16500
C322        C  0.38384634  0.59790871  0.90891934    -0.16500
H323        H  0.36562436  0.55226934  0.18376770     0.16400
H324        H  0.31250557  0.94379309  0.18428593     0.16400
H325        H  0.35500082  0.54966277  0.81258661     0.16400
H326        H  0.30184613  0.94146370  0.81293271     0.16400
H327        H  0.43582334  0.70817568  0.04667553     0.14600
H328        H  0.44169977  0.70769289  0.94937519     0.14600
H329        H  0.22775105  0.78550009  0.04852189     0.14600
H330        H  0.23279938  0.78533094  0.95116239     0.14600
H331        H  0.31485576  0.99624214  0.03665978     0.27900
H332        H  0.34427242  0.99684677  0.96092938     0.27900
N333        N  0.49839014  0.83351346  0.07301050    -0.34900
N334        N  0.08465221  0.87025516  0.99824757    -0.55400
N335        N  0.49751040  0.82184497  0.92250785    -0.34500
N336        N  0.41124652  0.78667771  0.99722528    -0.55400
C337        C  0.04333280  0.85203701  0.10275286     0.28700
C338        C  0.45284746  0.80824092  0.10221741     0.28700
C339        C  0.04319881  0.84703376  0.89337980     0.28700
C340        C  0.45233526  0.80341428  0.89294003     0.28700
C341        C  0.11809564  0.88919376  0.03821483     0.37300
C342        C  0.11797864  0.88557606  0.95827615     0.37300
C343        C  0.37804176  0.77269927  0.03723908     0.37300
C344        C  0.37768646  0.76878194  0.95730071     0.37300
C345        C  0.02609537  0.84160825  0.15154522    -0.20100
C346        C  0.46958917  0.81324436  0.15112988    -0.20100
C347        C  0.02662867  0.84411150  0.84459326    -0.20100
C348        C  0.46952244  0.81691683  0.84434117    -0.20100
C349        C  0.17317245  0.91798651  0.02348425    -0.21200
C350        C  0.17316342  0.91569478  0.97283537    -0.21200
C351        C  0.32285832  0.74673656  0.02260229    -0.21200
C352        C  0.32273456  0.74449630  0.97195240    -0.21200
C353        C  0.09979992  0.87903733  0.08775794    -0.16500
C354        C  0.39647265  0.78067351  0.08675270    -0.16500
C355        C  0.39588351  0.77445608  0.90786726    -0.16500
C356        C  0.09948000  0.87332193  0.90888293    -0.16500
H357        H  0.05172329  0.85327312  0.18430207     0.16400
H358        H  0.44369647  0.79885026  0.18369093     0.16400
H359        H  0.05272243  0.86090174  0.81231020     0.16400
H360        H  0.44383706  0.80845678  0.81187932     0.16400
H361        H  0.20944304  0.93870170  0.04683546     0.14600
H362        H  0.20954073  0.93459949  0.94941660     0.14600
H363        H  0.28651953  0.73104843  0.04594373     0.14600
H364        H  0.28649348  0.72762641  0.94851243     0.14600
H365        H  0.49848728  0.84007721  0.03555488     0.27900
H366        H  0.49734420  0.81306025  0.95955902     0.27900
C367        C  0.46612681  0.73353043  0.38656107     0.04000
C368        C  0.02507469  0.76665544  0.38603530     0.04000
C369        C  0.05324733  0.78111296  0.34058801    -0.16500
C370        C  0.02413517  0.76203081  0.29621195     0.04000
C371        C  0.46590452  0.72969720  0.29679831     0.04000
C372        C  0.43732635  0.71622921  0.34157271    -0.16500
H373        H  0.39232651  0.69080413  0.34150810     0.06000
H374        H  0.09833869  0.80491922  0.33991696     0.06000
C375        C  0.22243090  0.75051350  0.38605991     0.04000
C376        C  0.25670939  0.72634865  0.38575051     0.04000
C377        C  0.27514094  0.71717447  0.34038292    -0.16500
C378        C  0.26108580  0.73240588  0.29594916     0.04000
C379        C  0.22775698  0.75689713  0.29619169     0.04000
C380        C  0.20769449  0.76467519  0.34094323    -0.16500
H381        H  0.18302990  0.78477668  0.34089312     0.06000
H382        H  0.30176436  0.69922955  0.33976461     0.06000
C383        C  0.46658629  0.73871840  0.61104951     0.04000
C384        C  0.02557825  0.76393626  0.61053698     0.04000
C385        C  0.05459279  0.77527572  0.65547216    -0.16500
C386        C  0.02631721  0.76106849  0.70043922     0.04000
C387        C  0.46779973  0.73516453  0.70097912     0.04000
C388        C  0.43863744  0.72557935  0.65663308    -0.16500
H389        H  0.39359797  0.70487272  0.65744396     0.06000
H390        H  0.09945709  0.79383779  0.65533617     0.06000
C391        C  0.25081293  0.71928144  0.61075367     0.04000
C392        C  0.22683225  0.75370773  0.61126413     0.04000
C393        C  0.21743958  0.77167814  0.65681789    -0.16500
C394        C  0.23218425  0.75693858  0.70120424     0.04000
C395        C  0.25614537  0.72315584  0.70072107     0.04000
C396        C  0.26420547  0.70362278  0.65579190    -0.16500
H397        H  0.28414062  0.67881359  0.65566956     0.06000
H398        H  0.19986708  0.79860054  0.65763069     0.06000
C399        C  0.23507060  0.96453401  0.61046323     0.04000
C400        C  0.26725711  0.52346080  0.61067896     0.04000
C401        C  0.28117902  0.55179826  0.65609494    -0.16500
C402        C  0.26254525  0.52285690  0.70062699     0.04000
C403        C  0.23181030  0.96465231  0.70025153     0.04000
C404        C  0.21812976  0.93594404  0.65552719    -0.16500
H405        H  0.19297265  0.89099048  0.65570362     0.06000
H406        H  0.30448376  0.59681787  0.65661776     0.06000
C407        C  0.24162906  0.96438509  0.38589828     0.04000
C408        C  0.26462419  0.52302808  0.38598028     0.04000
C409        C  0.27482229  0.55119696  0.34077727    -0.16500
C410        C  0.26121525  0.52235514  0.29611291     0.04000
C411        C  0.23753181  0.96432051  0.29590406     0.04000
C412        C  0.22919656  0.93597288  0.34052158    -0.16500
H413        H  0.20966801  0.89109514  0.34010852     0.06000
H414        H  0.29219095  0.59583396  0.34043582     0.06000
O415        O  0.24348528  0.89855745  0.43929358    -0.80100
C416        C  0.05933801  0.77731102  0.56535406     0.99300
O417        O  0.06603405  0.81681185  0.53768215    -0.69200
O418        O  0.16404957  0.90397812  0.55679647    -0.72800
Al419      Al  0.12968544  0.86760116  0.49759394     1.49000
C420        C  0.21546896  0.93033150  0.56549229     0.94600
O421        O  0.23743829  0.82542137  0.55836226    -0.79000
O422        O  0.15381005  0.74698455  0.43926469    -0.72500
Al423      Al  0.23667201  0.86028380  0.49883626     1.90100
O424        O  0.17229682  0.74075852  0.53919279    -0.71600
O425        O  0.06156032  0.74834553  0.45825728    -0.71500
O426        O  0.08573074  0.75235690  0.55766607    -0.77100
O427        O  0.09200428  0.83525273  0.43815926    -0.75300
O428        O  0.16272091  0.82703645  0.49835111    -1.11500
O429        O  0.18575017  0.92767712  0.45761014    -0.70600
C430        C  0.22399728  0.92982135  0.43084391     1.00100
C431        C  0.21236155  0.77394438  0.56645579     0.96500
Al432      Al  0.12168974  0.75313535  0.49857055     1.55600
O433        O  0.24891021  0.92328184  0.53911016    -0.75300
C434        C  0.05997286  0.78416508  0.43069237     1.00600
C435        C  0.20497623  0.76694336  0.43128542     0.95500
O436        O  0.24103379  0.80475306  0.45872995    -0.80600
C437        C  0.35457733  0.75021143  0.86892475    -0.16800
C438        C  0.32653618  0.73307727  0.83212490     0.07300
C439        C  0.29948784  0.71888709  0.78585441     0.09200
C440        C  0.27868186  0.71479573  0.74588442    -0.17600
C441        C  0.21024657  0.93455461  0.74567993    -0.16800
C442        C  0.19183164  0.91668772  0.78593246     0.07300
C443        C  0.16765385  0.90208681  0.83303125     0.09200
C444        C  0.14065368  0.89032263  0.87027993    -0.17600
C445        C  0.14099377  0.89501919  0.12667891    -0.16800
C446        C  0.16869574  0.90523414  0.16362028     0.07300
C447        C  0.19520149  0.91760058  0.21014142     0.09200
C448        C  0.21557135  0.93394074  0.25034316    -0.17600
C449        C  0.28453140  0.72715225  0.25025551    -0.16800
C450        C  0.30371928  0.73015526  0.20985293     0.07300
C451        C  0.32814511  0.74146877  0.16271551     0.09200
C452        C  0.35515302  0.75706104  0.12542409    -0.17600
C453        C  0.43567092  0.70755364  0.25142558    -0.16800
C454        C  0.41772115  0.68920694  0.21113120     0.07300
C455        C  0.40311594  0.66574504  0.16371882     0.09200
C456        C  0.39176001  0.63941282  0.12608653    -0.17600
C457        C  0.40001621  0.63888643  0.87003842    -0.16800
C458        C  0.41018653  0.66661619  0.83327050     0.07300
C459        C  0.42217388  0.69293008  0.78686707     0.09200
C460        C  0.43808668  0.71312348  0.74665551    -0.17600
C461        C  0.22757951  0.78055530  0.74711752    -0.16800
C462        C  0.23154230  0.80017849  0.78751756     0.07300
C463        C  0.24401605  0.82559792  0.83432603     0.09200
C464        C  0.26015821  0.85317622  0.87131964    -0.17600
C465        C  0.21979315  0.77967857  0.25103982    -0.16800
C466        C  0.22313517  0.80034731  0.21117187     0.07300
C467        C  0.23597033  0.82679551  0.16470110     0.09200
C468        C  0.25265757  0.85448787  0.12773976    -0.17600
C469        C  0.05400982  0.76957937  0.25068056    -0.16800
C470        C  0.07119777  0.76629151  0.21081230     0.07300
C471        C  0.08505399  0.75374167  0.16448238     0.09200
C472        C  0.09644805  0.73738614  0.12767678    -0.17600
C473        C  0.05630384  0.76789111  0.74588496    -0.16800
C474        C  0.07330569  0.76578171  0.78624531     0.07300
C475        C  0.08738566  0.75542030  0.83344676     0.09200
C476        C  0.09950958  0.74090494  0.87099865    -0.17600
C477        C  0.27007526  0.55276888  0.74628231    -0.16800
C478        C  0.26781632  0.57078763  0.78613828     0.07300
C479        C  0.25716345  0.58647326  0.83257828     0.09200
C480        C  0.24230517  0.59930127  0.86958965    -0.17600
C481        C  0.26681244  0.55142585  0.25054194    -0.16800
C482        C  0.26374608  0.56782294  0.21026817     0.07300
C483        C  0.25224449  0.58137899  0.16342717     0.09200
C484        C  0.23690195  0.59324841  0.12629504    -0.17600
O485        O  0.90012149  0.24054003  0.55835130    -0.80100
C486        C  0.77827663  0.05726105  0.43114108     0.99300
O487        O  0.81800608  0.06410240  0.45866029    -0.69200
O488        O  0.90535811  0.16217851  0.43984538    -0.72800
Al489      Al  0.86891581  0.12743345  0.49898463     1.49000
C490        C  0.93203968  0.21361609  0.43158526     0.94600
O491        O  0.82761682  0.23599095  0.43919279    -0.79000
O492        O  0.74797790  0.15169856  0.55723842    -0.72500
Al493      Al  0.86210306  0.23449159  0.49868113     1.90100
O494        O  0.74257809  0.17064869  0.45738380    -0.71600
O495        O  0.74930852  0.05975968  0.53840353    -0.71500
O496        O  0.75346299  0.08378420  0.43884600    -0.77100
O497        O  0.83632253  0.08941799  0.55828591    -0.75300
O498        O  0.82846492  0.16059778  0.49854675    -1.11500
O499        O  0.92927397  0.18309222  0.53923114    -0.70600
C500        C  0.93156811  0.22111976  0.56636066     1.00100
C501        C  0.77614348  0.21101551  0.43065621     0.96500
Al502      Al  0.75440031  0.11981660  0.49800796     1.55600
O503        O  0.92538711  0.24689133  0.45853063    -0.75300
C504        C  0.78508509  0.05792610  0.56594496     1.00600
C505        C  0.76805770  0.20270402  0.56555860     0.95500
O506        O  0.80642035  0.23884705  0.53863819    -0.80600
N507        N  0.66068272  0.15935698  0.07403788    -0.34900
N508        N  0.62261362  0.20780850  0.99939526    -0.55400
N509        N  0.67151554  0.17045093  0.92369796    -0.34900
N510        N  0.70838515  0.12082631  0.99814023    -0.55400
C511        C  0.64083909  0.18440165  0.10378252     0.28700
C512        C  0.68557458  0.13889855  0.10322226     0.28700
C513        C  0.64441505  0.18868524  0.89467494     0.28700
C514        C  0.68969305  0.14372642  0.89410057     0.28700
C515        C  0.60302905  0.22123237  0.03940561     0.37300
C516        C  0.60609348  0.22456910  0.95947093     0.37300
C517        C  0.72215652  0.10141130  0.03804273     0.37300
C518        C  0.72624035  0.10550481  0.95813581     0.37300
C519        C  0.65131115  0.17763872  0.15257357    -0.20100
C520        C  0.67946006  0.14926142  0.15224540    -0.20100
C521        C  0.64634445  0.17412545  0.84604810    -0.20100
C522        C  0.67466728  0.14591069  0.84571344    -0.20100
C523        C  0.57288990  0.24589956  0.02481486    -0.21200
C524        C  0.57468392  0.24779089  0.97413882    -0.21200
C525        C  0.74800010  0.07248578  0.02324393    -0.21200
C526        C  0.75070447  0.07515406  0.97260955    -0.21200
C527        C  0.61330326  0.21305519  0.08884034    -0.16500
C528        C  0.71354014  0.11090693  0.08761123    -0.16500
C529        C  0.71952038  0.11729999  0.90876621    -0.16500
C530        C  0.61776683  0.21806025  0.91000515    -0.16500
H531        H  0.63941344  0.19114235  0.18535903     0.16400
H532        H  0.69342256  0.13735751  0.18478671     0.16400
H533        H  0.62851771  0.18220776  0.81387900     0.16400
H534        H  0.68251465  0.12830031  0.81330357     0.16400
H535        H  0.55138182  0.26041804  0.04817173     0.14600
H536        H  0.55424052  0.26333845  0.95069950     0.14600
H537        H  0.76296243  0.05137298  0.04652525     0.14600
H538        H  0.76781960  0.05614432  0.94914674     0.14600
H539        H  0.65517390  0.15402575  0.03650351     0.27900
H540        H  0.68133415  0.18009508  0.96044119     0.27900
N541        N  0.82420193  0.49676367  0.07382823    -0.34900
N542        N  0.87371759  0.08316333  0.99823230    -0.55400
N543        N  0.83719703  0.49646521  0.92377820    -0.34900
N544        N  0.78968287  0.41007076  0.99965569    -0.55400
C545        C  0.85039773  0.04236314  0.10272618     0.28700
C546        C  0.80639718  0.45187347  0.10354131     0.28700
C547        C  0.85627440  0.04141323  0.89397148     0.28700
C548        C  0.81150826  0.45088653  0.89466514     0.28700
C549        C  0.88810343  0.11671233  0.03797471     0.37300
C550        C  0.89344345  0.11634114  0.95825507     0.37300
C551        C  0.77080715  0.37681050  0.03967922     0.37300
C552        C  0.77542539  0.37661087  0.95983542     0.37300
C553        C  0.84840364  0.02604504  0.15144197    -0.20100
C554        C  0.82068469  0.46930996  0.15199852    -0.20100
C555        C  0.84419068  0.02409343  0.84527631    -0.20100
C556        C  0.81611859  0.46739507  0.84573320    -0.20100
C557        C  0.91826836  0.17172001  0.02329278    -0.21200
C558        C  0.92169922  0.17144236  0.97274894    -0.21200
C559        C  0.74546655  0.32172987  0.02533028    -0.21200
C560        C  0.74842615  0.32162555  0.97473237    -0.21200
C561        C  0.87559730  0.09844336  0.08732524    -0.16500
C562        C  0.77678595  0.39542489  0.08894802    -0.16500
C563        C  0.78378532  0.39467112  0.91023425    -0.16500
C564        C  0.88379942  0.09781676  0.90885148    -0.16500
H565        H  0.86536447  0.05221809  0.18365304     0.16400
H566        H  0.81274096  0.44385649  0.18449720     0.16400
H567        H  0.85451992  0.04958187  0.81254755     0.16400
H568        H  0.80121076  0.44139993  0.81326794     0.16400
H569        H  0.93669001  0.20812483  0.04660009     0.14600
H570        H  0.94265752  0.20753296  0.94929868     0.14600
H571        H  0.72729726  0.28550269  0.04886626     0.14600
H572        H  0.73244678  0.28530653  0.95150775     0.14600
H573        H  0.81452431  0.49626324  0.03693132     0.27900
H574        H  0.84429638  0.49682780  0.96118119     0.27900
N575        N  0.99844746  0.33281903  0.07312869    -0.34900
N576        N  0.58459747  0.37049716  0.99823989    -0.55400
N577        N  0.99791624  0.32108609  0.92262695    -0.34500
N578        N  0.91148625  0.28610700  0.99728827    -0.55400
C579        C  0.54317157  0.35180689  0.10272751     0.28700
C580        C  0.95286601  0.30798825  0.10231273     0.28700
C581        C  0.54322762  0.34752687  0.89337482     0.28700
C582        C  0.95277818  0.30284877  0.89304690     0.28700
C583        C  0.61799594  0.38935978  0.03823413     0.37300
C584        C  0.61796429  0.38598463  0.95828981     0.37300
C585        C  0.87821800  0.27260008  0.03722417     0.37300
C586        C  0.87801726  0.26841343  0.95730924     0.37300
C587        C  0.52590717  0.34115547  0.15150472    -0.20100
C588        C  0.96953572  0.31336200  0.15127388    -0.20100
C589        C  0.52666944  0.34462114  0.84458523    -0.20100
C590        C  0.97002404  0.31670493  0.84450024    -0.20100
C591        C  0.67308610  0.41827068  0.02354605    -0.21200
C592        C  0.67313144  0.41612589  0.97289053    -0.21200
C593        C  0.82309460  0.24713824  0.02247763    -0.21200
C594        C  0.82306565  0.24471161  0.97183782    -0.21200
C595        C  0.59965267  0.37902704  0.08775803    -0.16500
C596        C  0.89652866  0.28064589  0.08677425    -0.16500
C597        C  0.89630540  0.27396468  0.90792148    -0.16500
C598        C  0.59950280  0.37381734  0.90888501    -0.16500
H599        H  0.55151573  0.35268574  0.18426782     0.16400
H600        H  0.94360055  0.29938632  0.18382724     0.16400
H601        H  0.55276798  0.36144169  0.81230746     0.16400
H602        H  0.94437824  0.30854880  0.81205760     0.16400
H603        H  0.70932950  0.43894948  0.04693262     0.14600
H604        H  0.70952825  0.43513290  0.94949800     0.14600
H605        H  0.78673420  0.23192190  0.04573640     0.14600
H606        H  0.78689022  0.22816079  0.94832384     0.14600
H607        H  0.99862476  0.33894754  0.03559276     0.27900
H608        H  0.99767363  0.31204988  0.95963651     0.27900
C609        C  0.96613806  0.23345951  0.38652143     0.04000
C610        C  0.52499394  0.26621183  0.38604276     0.04000
C611        C  0.55323677  0.28058618  0.34064156    -0.16500
C612        C  0.52417936  0.26158996  0.29623697     0.04000
C613        C  0.96597189  0.22986497  0.29672157     0.04000
C614        C  0.93736092  0.21628666  0.34150076    -0.16500
H615        H  0.89236036  0.19088231  0.34141171     0.06000
H616        H  0.59833144  0.30431738  0.34002815     0.06000
C617        C  0.72215953  0.25007015  0.38611109     0.04000
C618        C  0.75643589  0.22590027  0.38580950     0.04000
C619        C  0.77487872  0.21675867  0.34042567    -0.16500
C620        C  0.76087115  0.23208383  0.29600622     0.04000
C621        C  0.72744159  0.25645909  0.29627356     0.04000
C622        C  0.70732253  0.26413560  0.34101304    -0.16500
H623        H  0.68262696  0.28420601  0.34097356     0.06000
H624        H  0.80155184  0.19887182  0.33978999     0.06000
C625        C  0.96670379  0.23879316  0.61109485     0.04000
C626        C  0.52552564  0.26341286  0.61052452     0.04000
C627        C  0.55441637  0.27440599  0.65549370    -0.16500
C628        C  0.52603771  0.26019055  0.70040185     0.04000
C629        C  0.96797676  0.23536488  0.70104028     0.04000
C630        C  0.93879656  0.22581293  0.65670060    -0.16500
H631        H  0.89376502  0.20522313  0.65753588     0.06000
H632        H  0.59926679  0.29283130  0.65543300     0.06000
C633        C  0.75121020  0.21975203  0.61075141     0.04000
C634        C  0.72738979  0.25432216  0.61114927     0.04000
C635        C  0.71834578  0.27269990  0.65663154    -0.16500
C636        C  0.73322069  0.25815509  0.70104245     0.04000
C637        C  0.75697834  0.22419743  0.70066546     0.04000
C638        C  0.76476016  0.20432997  0.65582172    -0.16500
H639        H  0.78455186  0.17938616  0.65578060     0.06000
H640        H  0.70086048  0.29969972  0.65736573     0.06000
C641        C  0.73502105  0.46448894  0.61029679     0.04000
C642        C  0.76735178  0.02333046  0.61077132     0.04000
C643        C  0.78118852  0.05161937  0.65619437    -0.16500
C644        C  0.76234481  0.02263219  0.70066758     0.04000
C645        C  0.73154660  0.46450730  0.70008788     0.04000
C646        C  0.71801642  0.43584480  0.65533943    -0.16500
H647        H  0.69289495  0.39088851  0.65547652     0.06000
H648        H  0.80454833  0.09663999  0.65675963     0.06000
C649        C  0.74145234  0.46460798  0.38582550     0.04000
C650        C  0.76448620  0.02305289  0.38614375     0.04000
C651        C  0.77464685  0.05133103  0.34101609    -0.16500
C652        C  0.76092153  0.02257428  0.29631252     0.04000
C653        C  0.73758779  0.46483223  0.29583540     0.04000
C654        C  0.72907789  0.43634043  0.34038673    -0.16500
H655        H  0.70945421  0.39145353  0.33986545     0.06000
H656        H  0.79207453  0.09597780  0.34076849     0.06000
O657        O  0.74317454  0.39851617  0.43896586    -0.80100
C658        C  0.55938059  0.27704199  0.56539472     0.99300
O659        O  0.56592899  0.31650087  0.53773200    -0.69200
O660        O  0.66394069  0.40382500  0.55672204    -0.72800
Al661      Al  0.62949051  0.36739583  0.49755559     1.49000
C662        C  0.71539041  0.43032455  0.56529135     0.94600
O663        O  0.73765003  0.32572643  0.55806771    -0.79000
O664        O  0.65371588  0.24676011  0.43932144    -0.72500
Al665      Al  0.73661399  0.36037292  0.49853558     1.90100
O666        O  0.67259005  0.24093297  0.53916872    -0.71600
O667        O  0.56149211  0.24806546  0.45835445    -0.71500
O668        O  0.58595462  0.25228769  0.55772165    -0.77100
O669        O  0.59173917  0.33493218  0.43818164    -0.75300
O670        O  0.66266215  0.32696504  0.49823141    -1.11500
O671        O  0.68544554  0.42758107  0.45749049    -0.70600
C672        C  0.72372597  0.42984784  0.43067394     1.00100
C673        C  0.71270788  0.27428626  0.56629989     0.96500
Al674      Al  0.62176477  0.25304449  0.49860538     1.55600
O675        O  0.74883459  0.42343143  0.53875585    -0.75300
C676        C  0.55981911  0.28381430  0.43074324     1.00600
C677        C  0.70485597  0.26671995  0.43126882     0.95500
O678        O  0.74097442  0.30478254  0.45848531    -0.80600
C679        C  0.85504584  0.25000456  0.86893957    -0.16800
C680        C  0.82701631  0.23321001  0.83211789     0.07300
C681        C  0.80004193  0.21949438  0.78582825     0.09200
C682        C  0.77937284  0.21573301  0.74585688    -0.17600
C683        C  0.70995198  0.43438531  0.74550254    -0.16800
C684        C  0.69160137  0.41666897  0.78580660     0.07300
C685        C  0.66757559  0.40235227  0.83298159     0.09200
C686        C  0.64067526  0.39077881  0.87028193    -0.17600
C687        C  0.64084024  0.39517788  0.12668888    -0.16800
C688        C  0.66859397  0.40559944  0.16360859     0.07300
C689        C  0.69519144  0.41816757  0.21007635     0.09200
C690        C  0.71561546  0.43456190  0.25024285    -0.17600
C691        C  0.78451334  0.22715645  0.25030524    -0.16800
C692        C  0.80373052  0.23046045  0.20986363     0.07300
C693        C  0.82811922  0.24194288  0.16270464     0.09200
C694        C  0.85512956  0.25742557  0.12540731    -0.17600
C695        C  0.93578095  0.20779808  0.25129862    -0.16800
C696        C  0.91783854  0.18942960  0.21099599     0.07300
C697        C  0.90317436  0.16585252  0.16360987     0.09200
C698        C  0.89174951  0.13944674  0.12600413    -0.17600
C699        C  0.90010951  0.13882181  0.86998115    -0.16800
C700        C  0.91035116  0.16662297  0.83325288     0.07300
C701        C  0.92236693  0.19307318  0.78691183     0.09200
C702        C  0.93827608  0.21335315  0.74672727    -0.17600
C703        C  0.72863303  0.28182683  0.74690739    -0.16800
C704        C  0.73236552  0.30111973  0.78741133     0.07300
C705        C  0.74439314  0.32595083  0.83444737     0.09200
C706        C  0.76016950  0.35320136  0.87163013    -0.17600
C707        C  0.71951681  0.27935556  0.25118434    -0.16800
C708        C  0.72289340  0.30017578  0.21139198     0.07300
C709        C  0.73575250  0.32679623  0.16500625     0.09200
C710        C  0.75240624  0.35454283  0.12807510    -0.17600
C711        C  0.55411612  0.26917012  0.25076167    -0.16800
C712        C  0.57133607  0.26595716  0.21089990     0.07300
C713        C  0.58512948  0.25345373  0.16454427     0.09200
C714        C  0.59641562  0.23706564  0.12771461    -0.17600
C715        C  0.55592162  0.26701087  0.74589679    -0.16800
C716        C  0.57299520  0.26515814  0.78628572     0.07300
C717        C  0.58725598  0.25515034  0.83352919     0.09200
C718        C  0.59948442  0.24078048  0.87109613    -0.17600
C719        C  0.76979330  0.05252687  0.74629868    -0.16800
C720        C  0.76759219  0.07064048  0.78611134     0.07300
C721        C  0.75709986  0.08643875  0.83254341     0.09200
C722        C  0.74235182  0.09931900  0.86957651    -0.17600
C723        C  0.76650504  0.05171233  0.25081710    -0.16800
C724        C  0.76335229  0.06784204  0.21045989     0.07300
C725        C  0.75179301  0.08095529  0.16347598     0.09200
C726        C  0.73650707  0.09267762  0.12624447    -0.17600
O727        O  0.90009470  0.74059159  0.55834121    -0.80100
C728        C  0.77848257  0.55737607  0.43100572     0.99300
O729        O  0.81812863  0.56416877  0.45862224    -0.69200
O730        O  0.90545909  0.66228620  0.43980045    -0.72800
Al731      Al  0.86903528  0.62754910  0.49893354     1.49000
C732        C  0.93215807  0.71373238  0.43158120     0.94600
O733        O  0.82777094  0.73609516  0.43909166    -0.79000
O734        O  0.74808372  0.65167009  0.55711648    -0.72500
Al735      Al  0.86217682  0.73457041  0.49862324     1.90100
O736        O  0.74271666  0.67081266  0.45730991    -0.71600
O737        O  0.74942449  0.55971872  0.53814258    -0.71500
O738        O  0.75372130  0.58397875  0.43860915    -0.77100
O739        O  0.83642421  0.58955710  0.55821742    -0.75300
O740        O  0.82857547  0.66068728  0.49845305    -1.11500
O741        O  0.92937816  0.68325473  0.53919461    -0.70600
C742        C  0.93159765  0.72123781  0.56634618     1.00100
C743        C  0.77628753  0.71120587  0.43060371     0.96500
Al744      Al  0.75453629  0.61988443  0.49783856     1.55600
O745        O  0.92553595  0.74699954  0.45856870    -0.75300
C746        C  0.78518351  0.55793521  0.56575602     1.00600
C747        C  0.76808156  0.70267029  0.56543504     0.95500
O748        O  0.80639441  0.73885618  0.53849971    -0.80600
N749        N  0.66088681  0.65940364  0.07373576    -0.34900
N750        N  0.62245024  0.70758194  0.99915437    -0.55400
N751        N  0.67153764  0.67050519  0.92343765    -0.34900
N752        N  0.70839935  0.62078232  0.99785418    -0.55400
C753        C  0.64109260  0.68448623  0.10349161     0.28700
C754        C  0.68604155  0.63919809  0.10290100     0.28700
C755        C  0.64430325  0.68861714  0.89444656     0.28700
C756        C  0.68959543  0.64368565  0.89383160     0.28700
C757        C  0.60281509  0.72091801  0.03918256     0.37300
C758        C  0.60599277  0.72445099  0.95926272     0.37300
C759        C  0.72206163  0.60121463  0.03772290     0.37300
C760        C  0.72603067  0.60529285  0.95781247     0.37300
C761        C  0.65195711  0.67808932  0.15225766    -0.20100
C762        C  0.68022492  0.64984143  0.15190711    -0.20100
C763        C  0.64601344  0.67387568  0.84583902    -0.20100
C764        C  0.67435667  0.64568309  0.84547706    -0.20100
C765        C  0.57270992  0.74563940  0.02463199    -0.21200
C766        C  0.57458649  0.74766700  0.97396182    -0.21200
C767        C  0.74755252  0.57197591  0.02286487    -0.21200
C768        C  0.75019406  0.57464180  0.97222469    -0.21200
C769        C  0.61314117  0.71274505  0.08860170    -0.16500
C770        C  0.71379550  0.61099393  0.08730542    -0.16500
C771        C  0.71941046  0.61724213  0.90846812    -0.16500
C772        C  0.61769252  0.71801098  0.90979769    -0.16500
H773        H  0.64016528  0.69167023  0.18505500     0.16400
H774        H  0.69434800  0.63809102  0.18443489     0.16400
H775        H  0.62798423  0.68178249  0.81371597     0.16400
H776        H  0.68201817  0.62790254  0.81308535     0.16400
H777        H  0.55124946  0.76019471  0.04801245     0.14600
H778        H  0.55421420  0.76331928  0.95054979     0.14600
H779        H  0.76238085  0.55071817  0.04611350     0.14600
H780        H  0.76709285  0.55545825  0.94871881     0.14600
H781        H  0.65499561  0.65371687  0.03624982     0.27900
H782        H  0.68149365  0.68025657  0.96015629     0.27900
N783        N  0.82445675  0.99677545  0.07365850    -0.34900
N784        N  0.87327364  0.58318945  0.99831289    -0.55400
N785        N  0.83764825  0.99639936  0.92365194    -0.34900
N786        N  0.78980765  0.91003205  0.99948017    -0.55400
C787        C  0.85007930  0.54236453  0.10287640     0.28700
C788        C  0.80666350  0.95187310  0.10335383     0.28700
C789        C  0.85593836  0.54147002  0.89407066     0.28700
C790        C  0.81186049  0.95083214  0.89452286     0.28700
C791        C  0.88777662  0.61671400  0.03807515     0.37300
C792        C  0.89304767  0.61638434  0.95834532     0.37300
C793        C  0.77072940  0.87678525  0.03950230     0.37300
C794        C  0.77548685  0.87655074  0.95966826     0.37300
C795        C  0.84800121  0.52606348  0.15161392    -0.20100
C796        C  0.82107088  0.96929275  0.15180288    -0.20100
C797        C  0.84399036  0.52413344  0.84537214    -0.20100
C798        C  0.81633564  0.96735750  0.84560957    -0.20100
C799        C  0.91802818  0.67172229  0.02340799    -0.21200
C800        C  0.92140114  0.67147402  0.97285913    -0.21200
C801        C  0.74515252  0.82169009  0.02515839    -0.21200
C802        C  0.74820462  0.82156364  0.97456757    -0.21200
C803        C  0.87534643  0.59843998  0.08743297    -0.16500
C804        C  0.77684539  0.89542556  0.08877417    -0.16500
C805        C  0.78404462  0.89460935  0.91006679    -0.16500
C806        C  0.88350910  0.59787669  0.90893581    -0.16500
H807        H  0.86491898  0.55224724  0.18382368     0.16400
H808        H  0.81313995  0.94382614  0.18429023     0.16400
H809        H  0.85445425  0.54960937  0.81262370     0.16400
H810        H  0.80127645  0.94137306  0.81314575     0.16400
H811        H  0.93659949  0.70810762  0.04673435     0.14600
H812        H  0.94244897  0.70757383  0.94942738     0.14600
H813        H  0.72682507  0.78546968  0.04869847     0.14600
H814        H  0.73212633  0.78523419  0.95134855     0.14600
H815        H  0.81467552  0.99628385  0.03678127     0.27900
H816        H  0.84486225  0.99676082  0.96104382     0.27900
N817        N  0.99813043  0.83249144  0.07308617    -0.34900
N818        N  0.58471997  0.87069952  0.99813482    -0.55400
N819        N  0.99761941  0.82117588  0.92247344    -0.34500
N820        N  0.91115357  0.78573695  0.99716655    -0.55400
C821        C  0.54361050  0.85233349  0.10258657     0.28700
C822        C  0.95254845  0.80779596  0.10226644     0.28700
C823        C  0.54304296  0.84755621  0.89334548     0.28700
C824        C  0.95248089  0.80281749  0.89288065     0.28700
C825        C  0.61826443  0.88977744  0.03802138     0.37300
C826        C  0.61795681  0.88602408  0.95811078     0.37300
C827        C  0.87787699  0.77191491  0.03712294     0.37300
C828        C  0.87770323  0.76818461  0.95717198     0.37300
C829        C  0.52642670  0.84095422  0.15134127    -0.20100
C830        C  0.96923494  0.81377172  0.15126381    -0.20100
C831        C  0.52640975  0.84453275  0.84456470    -0.20100
C832        C  0.96973917  0.81646113  0.84431092    -0.20100
C833        C  0.67330886  0.91860172  0.02320184    -0.21200
C834        C  0.67318213  0.91621271  0.97255787    -0.21200
C835        C  0.82274983  0.74636722  0.02237530    -0.21200
C836        C  0.82274099  0.74426084  0.97171773    -0.21200
C837        C  0.60006486  0.87953826  0.08756521    -0.16500
C838        C  0.89620561  0.78005012  0.08668302    -0.16500
C839        C  0.89600686  0.77395256  0.90776596    -0.16500
C840        C  0.59933697  0.87369630  0.90876851    -0.16500
H841        H  0.55207532  0.85187454  0.18404096     0.16400
H842        H  0.94329988  0.79998681  0.18382504     0.16400
H843        H  0.55246161  0.86116391  0.81223795     0.16400
H844        H  0.94410253  0.80814383  0.81183703     0.16400
H845        H  0.70962888  0.93935238  0.04649371     0.14600
H846        H  0.70950570  0.93509878  0.94906943     0.14600
H847        H  0.78638439  0.73101766  0.04564016     0.14600
H848        H  0.78657765  0.72780181  0.94820224     0.14600
H849        H  0.99825736  0.83794361  0.03547563     0.27900
H850        H  0.99739497  0.81229900  0.95950004     0.27900
C851        C  0.96617719  0.73360551  0.38648652     0.04000
C852        C  0.52504899  0.76622213  0.38616633     0.04000
C853        C  0.55330541  0.78029581  0.34076105    -0.16500
C854        C  0.52421896  0.76120116  0.29637693     0.04000
C855        C  0.96584078  0.73011366  0.29669625     0.04000
C856        C  0.93732456  0.71627803  0.34151807    -0.16500
H857        H  0.89234718  0.69059418  0.34149884     0.06000
H858        H  0.59840425  0.80384849  0.34014263     0.06000
C859        C  0.72230405  0.75037954  0.38618374     0.04000
C860        C  0.75657846  0.72620070  0.38581652     0.04000
C861        C  0.77501841  0.71713675  0.34040444    -0.16500
C862        C  0.76100941  0.73252506  0.29602461     0.04000
C863        C  0.72762136  0.75694505  0.29634815     0.04000
C864        C  0.70750905  0.76456247  0.34111864    -0.16500
H865        H  0.68282195  0.78464039  0.34113188     0.06000
H866        H  0.80166320  0.69921750  0.33971195     0.06000
C867        C  0.96675189  0.73898575  0.61107229     0.04000
C868        C  0.52539363  0.76345608  0.61057532     0.04000
C869        C  0.55431118  0.77456832  0.65552799    -0.16500
C870        C  0.52596967  0.76046047  0.70044444     0.04000
C871        C  0.96812256  0.73554803  0.70102007     0.04000
C872        C  0.93887231  0.72581517  0.65669445    -0.16500
H873        H  0.89382453  0.70493609  0.65755120     0.06000
H874        H  0.59916170  0.79298696  0.65545261     0.06000
C875        C  0.75119967  0.71965579  0.61064387     0.04000
C876        C  0.72747246  0.75431143  0.61111238     0.04000
C877        C  0.71824103  0.77246473  0.65662434    -0.16500
C878        C  0.73293106  0.75770188  0.70100690     0.04000
C879        C  0.75666145  0.72372193  0.70056351     0.04000
C880        C  0.76456622  0.70401556  0.65568626    -0.16500
H881        H  0.78433512  0.67905028  0.65560794     0.06000
H882        H  0.70077395  0.79948037  0.65740908     0.06000
C883        C  0.73482912  0.96449681  0.61043226     0.04000
C884        C  0.76744347  0.52333431  0.61057850     0.04000
C885        C  0.78127682  0.55167885  0.65596171    -0.16500
C886        C  0.76249185  0.52276688  0.70046130     0.04000
C887        C  0.73134942  0.96437446  0.70018873     0.04000
C888        C  0.71777043  0.93579304  0.65541909    -0.16500
H889        H  0.69260288  0.89083784  0.65549949     0.06000
H890        H  0.80458717  0.59670165  0.65647582     0.06000
C891        C  0.74102658  0.96450125  0.38596800     0.04000
C892        C  0.76477704  0.52316082  0.38601048     0.04000
C893        C  0.77494074  0.55145974  0.34087745    -0.16500
C894        C  0.76128853  0.52274012  0.29615156     0.04000
C895        C  0.73709310  0.96465215  0.29599366     0.04000
C896        C  0.72847292  0.93616571  0.34055695    -0.16500
H897        H  0.70875206  0.89127107  0.34006753     0.06000
H898        H  0.79227039  0.59609219  0.34064518     0.06000
O899        O  0.74302842  0.89861447  0.43911751    -0.80100
C900        C  0.55926565  0.77701768  0.56545869     0.99300
O901        O  0.56578388  0.81642886  0.53775912    -0.69200
O902        O  0.66376777  0.90378805  0.55688397    -0.72800
Al903      Al  0.62938786  0.86739710  0.49769816     1.49000
C904        C  0.71522688  0.93036483  0.56542576     0.94600
O905        O  0.73775344  0.82584584  0.55815744    -0.79000
O906        O  0.65381271  0.74688839  0.43945364    -0.72500
Al907      Al  0.73660189  0.86052049  0.49866024     1.90100
O908        O  0.67265281  0.74106270  0.53924800    -0.71600
O909        O  0.56153953  0.74811278  0.45847888    -0.71500
O910        O  0.58594527  0.75234480  0.55786610    -0.77100
O911        O  0.59175203  0.83497055  0.43828762    -0.75300
O912        O  0.66264547  0.82703804  0.49838014    -1.11500
O913        O  0.68529478  0.92763874  0.45774171    -0.70600
C914        C  0.72348692  0.92986249  0.43084568     1.00100
C915        C  0.71282574  0.77438528  0.56633065     0.96500
Al916      Al  0.62180868  0.75312869  0.49873372     1.55600
O917        O  0.74871124  0.92352333  0.53889927    -0.75300
C918        C  0.55985988  0.78384907  0.43085724     1.00600
C919        C  0.70496369  0.76693352  0.43137411     0.95500
O920        O  0.74105758  0.80503069  0.45857318    -0.80600
C921        C  0.85475501  0.75000661  0.86878480    -0.16800
C922        C  0.82674026  0.73309818  0.83196938     0.07300
C923        C  0.79975591  0.71913924  0.78569589     0.09200
C924        C  0.77904922  0.71522086  0.74572421    -0.17600
C925        C  0.70978065  0.93412338  0.74551643    -0.16800
C926        C  0.69139848  0.91621777  0.78575026     0.07300
C927        C  0.66731715  0.90182241  0.83286849     0.09200
C928        C  0.64040291  0.89035959  0.87013461    -0.17600
C929        C  0.64130689  0.89551801  0.12643917    -0.16800
C930        C  0.66892423  0.90576633  0.16343495     0.07300
C931        C  0.69520272  0.91814359  0.21005454     0.09200
C932        C  0.71532393  0.93441821  0.25034170    -0.17600
C933        C  0.78452063  0.72747487  0.25029953    -0.16800
C934        C  0.80362936  0.73049759  0.20985987     0.07300
C935        C  0.82787915  0.74155739  0.16265839     0.09200
C936        C  0.85482023  0.75681424  0.12531669    -0.17600
C937        C  0.93561929  0.70790541  0.25132647    -0.16800
C938        C  0.91771571  0.68949632  0.21103568     0.07300
C939        C  0.90310865  0.66589860  0.16367059     0.09200
C940        C  0.89164204  0.63946708  0.12608847    -0.17600
C941        C  0.90007536  0.63889224  0.87003905    -0.16800
C942        C  0.91049379  0.66666724  0.83327123     0.07300
C943        C  0.92260086  0.69306818  0.78689894     0.09200
C944        C  0.93849089  0.71336519  0.74671357    -0.17600
C945        C  0.72837301  0.78134621  0.74689846    -0.16800
C946        C  0.73226083  0.80076218  0.78737030     0.07300
C947        C  0.74451649  0.82579344  0.83432642     0.09200
C948        C  0.76040810  0.85313973  0.87145343    -0.17600
C949        C  0.71965702  0.77984458  0.25127181    -0.16800
C950        C  0.72297112  0.80056382  0.21143517     0.07300
C951        C  0.73575350  0.82697935  0.16494861     0.09200
C952        C  0.75239356  0.85458540  0.12793367    -0.17600
C953        C  0.55405605  0.76844274  0.25088978    -0.16800
C954        C  0.57103107  0.76504443  0.21095812     0.07300
C955        C  0.58461265  0.75258639  0.16447756     0.09200
C956        C  0.59595290  0.73641915  0.12753611    -0.17600
C957        C  0.55590346  0.76735502  0.74590195    -0.16800
C958        C  0.57299803  0.76544709  0.78625394     0.07300
C959        C  0.58723961  0.75527792  0.83342650     0.09200
C960        C  0.59944605  0.74079392  0.87092933    -0.17600
C961        C  0.76993571  0.55275655  0.74601656    -0.16800
C962        C  0.76770295  0.57089298  0.78579703     0.07300
C963        C  0.75712358  0.58659948  0.83222015     0.09200
C964        C  0.74229329  0.59936070  0.86926230    -0.17600
C965        C  0.76676824  0.55187481  0.25064263    -0.16800
C966        C  0.76359710  0.56801853  0.21027835     0.07300
C967        C  0.75208958  0.58113393  0.16324311     0.09200
C968        C  0.73683338  0.59281425  0.12595053    -0.17600
loop_ 
_geom_bond_atom_site_label_1 
_geom_bond_atom_site_label_2 
_geom_bond_distance 
_geom_bond_site_symmetry_2 
_ccdc_geom_bond_type 
O1           C16   1.260       .  A
O1           Al9   1.892       .  S
C2           O12   1.260       .  A
C2            O3   1.267       .  A
C2          C166   1.476       .  S
O3           Al5   1.949       .  S
O4            C6   1.260       .  A
O4           Al5   1.883       .  S
Al5          O13   1.886       .  S
Al5          O15   1.948       .  S
Al5          O14   1.784       .  S
C6           O19   1.267       .  A
C6          C125   1.473       .  S
O7           C17   1.260       .  A
O7           Al9   1.887       .  S
O8           C21   1.260       .  A
O8          Al18   1.888       .  S
Al9          O22   1.947       .  S
Al9          O19   1.949       .  S
Al9          O14   1.784       .  S
O10          C17   1.267       .  A
O10         Al18   1.951       .  S
O11          C20   1.267       .  A
O11         Al18   1.948       .  S
O12         Al18   1.888       .  S
O13          C20   1.260       .  A
O14         Al18   1.784       .  S
O15          C16   1.266       .  A
C16         C141   1.477       .  S
C17         C134   1.477       .  S
C20         C158   1.474       .  S
C21          O22   1.267       .  A
C21         C149   1.475       .  S
N23          C28   1.354       .  A
N23          C27   1.355       .  A
N23          H55   1.028       .  S
N24          C31   1.350   1_556  A
N24          C32   1.348       .  A
N25          C30   1.356       .  A
N25          C29   1.355       .  A
N25          H56   1.032       .  S
N26          C33   1.349   1_556  A
N26          C34   1.350       .  A
C27          C35   1.387       .  A
C27          C43   1.419       .  A
C28          C44   1.419       .  A
C28          C36   1.389       .  A
C29          C37   1.388       .  A
C29          C46   1.419       .  A
C30          C45   1.418       .  A
C30          C38   1.387       .  A
C31          C43   1.412       .  A
C31          C39   1.386       .  A
C32          C46   1.413       .  A
C32          C40   1.385       .  A
C33          C41   1.386       .  A
C33          C44   1.414       .  A
C34          C42   1.386       .  A
C34          C45   1.413       .  A
C35          C36   1.368       .  A
C35          H47   1.081       .  S
C36          H48   1.081       .  S
C37          C38   1.368       .  A
C37          H49   1.082       .  S
C38          H50   1.082       .  S
C39          C40   1.374   1_554  A
C39          H51   1.082       .  S
C40          H52   1.080       .  S
C41          C42   1.374   1_554  A
C41          H53   1.080       .  S
C42          H54   1.082       .  S
C43         C230   1.450       .  S
C44         C242   1.447       .  S
C45         C238   1.452       .  S
C46         C234   1.449       .  S
N57          C62   1.355       .  A
N57         C303   1.354       .  A
N57          H89   1.034       .  S
N58          C65   1.349   1_556  A
N58          C66   1.349       .  A
N59          C64   1.355       .  A
N59         C305   1.355       .  A
N59          H90   1.032       .  S
N60          C67   1.350   1_556  A
N60          C68   1.349       .  A
C61         N299   1.354   1_545  A
C61          C69   1.389       .  A
C61          C77   1.417       .  A
C62          C78   1.417       .  A
C62          C70   1.387       .  A
C63         N301   1.355   1_545  A
C63          C71   1.387       .  A
C63          C80   1.418       .  A
C64          C79   1.419       .  A
C64          C72   1.388       .  A
C65          C77   1.411       .  A
C65          C73   1.385       .  A
C66          C80   1.412       .  A
C66          C74   1.385       .  A
C67          C75   1.385       .  A
C67          C78   1.412       .  A
C68          C76   1.385       .  A
C68          C79   1.413       .  A
C69         C312   1.368   1_545  A
C69          H81   1.082       .  S
C70         C311   1.368       .  A
C70          H82   1.082       .  S
C71         C314   1.368   1_545  A
C71          H83   1.081       .  S
C72         C313   1.367       .  A
C72          H84   1.081       .  S
C73          C74   1.373   1_554  A
C73          H85   1.081       .  S
C74          H86   1.080       .  S
C75          C76   1.374   1_554  A
C75          H87   1.081       .  S
C76          H88   1.080       .  S
C77         C214   1.446       .  S
C78         C226   1.451       .  S
C79         C222   1.449       .  S
C80         C215   1.449       .  S
N91          C96   1.353       .  A
N91         C579   1.355       .  A
N91         H123   1.030       .  S
N92          C99   1.350   1_556  A
N92         C100   1.349       .  A
N93          C98   1.355       .  A
N93         C581   1.353       .  A
N93         H124   1.033       .  S
N94         C101   1.350   1_556  A
N94         C102   1.350       .  A
C95         N575   1.355   1_455  A
C95         C103   1.387       .  A
C95         C111   1.418       .  A
C96         C112   1.420       .  A
C96         C104   1.389       .  A
C97         N577   1.354   1_455  A
C97         C105   1.389       .  A
C97         C114   1.418       .  A
C98         C113   1.418       .  A
C98         C106   1.387       .  A
C99         C111   1.413       .  A
C99         C107   1.384       .  A
C100        C114   1.412       .  A
C100        C108   1.386       .  A
C101        C109   1.386       .  A
C101        C112   1.414       .  A
C102        C110   1.384       .  A
C102        C113   1.413       .  A
C103        C588   1.368   1_455  A
C103        H115   1.081       .  S
C104        C587   1.368       .  A
C104        H116   1.081       .  S
C105        C590   1.369   1_455  A
C105        H117   1.082       .  S
C106        C589   1.369       .  A
C106        H118   1.082       .  S
C107        C108   1.374   1_554  A
C107        H119   1.080       .  S
C108        H120   1.082       .  S
C109        C110   1.374   1_554  A
C109        H121   1.082       .  S
C110        H122   1.079       .  S
C111        C203   1.452       .  S
C112        C210   1.447       .  S
C113        C195   1.451       .  S
C114        C202   1.445       .  S
C125        C130   1.404       .  A
C125        C610   1.420       .  A
C126        C192   1.472       .  S
C126        C127   1.406       .  A
C126        C609   1.420   1_455  A
C127        C128   1.397       .  A
C127        H132   1.085       .  S
C128        C613   1.404   1_455  A
C128        C227   1.444       .  S
C129        C130   1.396       .  A
C129        C612   1.404       .  A
C129        C211   1.442       .  S
C130        H131   1.085       .  S
C133        C193   1.475       .  S
C133        C134   1.421       .  A
C133        C138   1.408       .  A
C134        C135   1.406       .  A
C135        C136   1.397       .  A
C135        H140   1.085       .  S
C136        C137   1.404       .  A
C136        C207   1.442       .  S
C137        C138   1.398       .  A
C137        C223   1.446       .  S
C138        H139   1.085       .  S
C141        C146   1.407       .  A
C141        C626   1.421       .  A
C142        C174   1.473       .  S
C142        C143   1.406       .  A
C142        C625   1.422   1_455  A
C143        C144   1.396       .  A
C143        H148   1.085       .  S
C144        C629   1.404   1_455  A
C144        C231   1.445       .  S
C145        C146   1.398       .  A
C145        C628   1.404       .  A
C145        C218   1.443       .  S
C146        H147   1.085       .  S
C149        C150   1.421       .  A
C149        C154   1.408       .  A
C150        C189   1.478       .  S
C150        C151   1.406       .  A
C151        C152   1.398       .  A
C151        H156   1.085       .  S
C152        C153   1.404       .  A
C152        C219   1.445       .  S
C153        C154   1.398       .  A
C153        C198   1.446       .  S
C154        H155   1.085       .  S
C157        C178   1.473       .  S
C157        C162   1.404       .  A
C157        C400   1.420       .  A
C158        C159   1.407       .  A
C158        C399   1.420   1_545  A
C159        C160   1.398       .  A
C159        H164   1.085       .  S
C160        C403   1.405   1_545  A
C160        C235   1.447       .  S
C161        C162   1.396       .  A
C161        C402   1.405       .  A
C161        C199   1.440       .  S
C162        H163   1.085       .  S
C165        C188   1.476       .  S
C165        C170   1.408       .  A
C165        C408   1.422       .  A
C166        C167   1.405       .  A
C166        C407   1.421   1_545  A
C167        C168   1.396       .  A
C167        H172   1.085       .  S
C168        C411   1.404   1_545  A
C168        C239   1.442       .  S
C169        C170   1.398       .  A
C169        C410   1.404       .  A
C169        C206   1.447       .  S
C170        H171   1.085       .  S
O173        C188   1.260       .  A
O173       Al181   1.890       .  S
C174        O184   1.260       .  A
C174        O175   1.267       .  A
O175       Al177   1.949       .  S
O176        C178   1.259       .  A
O176       Al177   1.882       .  S
Al177       O185   1.885       .  S
Al177       O187   1.946       .  S
Al177       O186   1.784       .  S
C178        O191   1.267       .  A
O179        C189   1.260       .  A
O179       Al181   1.889       .  S
O180        C193   1.260       .  A
O180       Al190   1.888       .  S
Al181       O194   1.948       .  S
Al181       O191   1.949       .  S
Al181       O186   1.783       .  S
O182        C189   1.267       .  A
O182       Al190   1.951       .  S
O183        C192   1.267       .  A
O183       Al190   1.947       .  S
O184       Al190   1.884       .  S
O185        C192   1.259       .  A
O186       Al190   1.784       .  S
O187        C188   1.266       .  A
C193        O194   1.267       .  A
C195        C196   1.206       .  T
C196        C197   1.412       .  S
C197        C198   1.206       .  T
C199        C200   1.202       .  T
C200        C201   1.405       .  S
C201        C202   1.202       .  T
C203        C204   1.207       .  T
C204        C205   1.412       .  S
C205        C206   1.206       .  T
C207        C208   1.203       .  T
C208        C209   1.407       .  S
C209        C210   1.203       .  T
C211        C212   1.203       .  T
C212        C213   1.406       .  S
C213        C214   1.203       .  T
C215        C216   1.204       .  T
C216        C217   1.408       .  S
C217        C218   1.204       .  T
C219        C220   1.204       .  T
C220        C221   1.409       .  S
C221        C222   1.205       .  T
C223        C224   1.206       .  T
C224        C225   1.411       .  S
C225        C226   1.206       .  T
C227        C228   1.204       .  T
C228        C229   1.409       .  S
C229        C230   1.205       .  T
C231        C232   1.205       .  T
C232        C233   1.409       .  S
C233        C234   1.204       .  T
C235        C236   1.206       .  T
C236        C237   1.412       .  S
C237        C238   1.207       .  T
C239        C240   1.203       .  T
C240        C241   1.407       .  S
C241        C242   1.203       .  T
O243        C258   1.260       .  A
O243       Al251   1.892       .  S
C244        O254   1.260       .  A
C244        O245   1.267       .  A
C244        C408   1.476       .  S
O245       Al247   1.950       .  S
O246        C248   1.260       .  A
O246       Al247   1.883       .  S
Al247       O255   1.887       .  S
Al247       O257   1.948       .  S
Al247       O256   1.784       .  S
C248        O261   1.267       .  A
C248        C367   1.473       .  S
O249        C259   1.260       .  A
O249       Al251   1.887       .  S
O250        C263   1.260       .  A
O250       Al260   1.887       .  S
Al251       O264   1.948       .  S
Al251       O261   1.951       .  S
Al251       O256   1.783       .  S
O252        C259   1.267       .  A
O252       Al260   1.951       .  S
O253        C262   1.267       .  A
O253       Al260   1.948       .  S
O254       Al260   1.887       .  S
O255        C262   1.260       .  A
O256       Al260   1.784       .  S
O257        C258   1.266       .  A
C258        C383   1.477       .  S
C259        C376   1.477       .  S
C262        C400   1.474       .  S
C263        O264   1.267       .  A
C263        C391   1.475       .  S
N265        C270   1.354       .  A
N265        C269   1.355       .  A
N265        H297   1.029       .  S
N266        C273   1.350   1_556  A
N266        C274   1.349       .  A
N267        C272   1.356       .  A
N267        C271   1.355       .  A
N267        H298   1.032       .  S
N268        C275   1.349   1_556  A
N268        C276   1.350       .  A
C269        C277   1.387       .  A
C269        C285   1.419       .  A
C270        C286   1.419       .  A
C270        C278   1.389       .  A
C271        C279   1.388       .  A
C271        C288   1.419       .  A
C272        C287   1.419       .  A
C272        C280   1.387       .  A
C273        C285   1.412       .  A
C273        C281   1.386       .  A
C274        C288   1.413       .  A
C274        C282   1.385       .  A
C275        C283   1.386       .  A
C275        C286   1.414       .  A
C276        C284   1.386       .  A
C276        C287   1.413       .  A
C277        C278   1.368       .  A
C277        H289   1.081       .  S
C278        H290   1.081       .  S
C279        C280   1.368       .  A
C279        H291   1.082       .  S
C280        H292   1.082       .  S
C281        C282   1.375   1_554  A
C281        H293   1.082       .  S
C282        H294   1.080       .  S
C283        C284   1.375   1_554  A
C283        H295   1.080       .  S
C284        H296   1.082       .  S
C285        C472   1.450       .  S
C286        C484   1.447       .  S
C287        C480   1.453       .  S
C288        C476   1.449       .  S
N299        C304   1.355       .  A
N299        H331   1.034       .  S
N300        C307   1.349   1_556  A
N300        C308   1.349       .  A
N301        C306   1.354       .  A
N301        H332   1.032       .  S
N302        C309   1.350   1_556  A
N302        C310   1.349       .  A
C303        C311   1.389       .  A
C303        C319   1.417       .  A
C304        C320   1.417       .  A
C304        C312   1.387       .  A
C305        C313   1.387       .  A
C305        C322   1.418       .  A
C306        C321   1.419       .  A
C306        C314   1.388       .  A
C307        C319   1.411       .  A
C307        C315   1.385       .  A
C308        C322   1.412       .  A
C308        C316   1.385       .  A
C309        C317   1.385       .  A
C309        C320   1.412       .  A
C310        C318   1.385       .  A
C310        C321   1.413       .  A
C311        H323   1.082       .  S
C312        H324   1.082       .  S
C313        H325   1.081       .  S
C314        H326   1.081       .  S
C315        C316   1.374   1_554  A
C315        H327   1.081       .  S
C316        H328   1.080       .  S
C317        C318   1.374   1_554  A
C317        H329   1.081       .  S
C318        H330   1.080       .  S
C319        C456   1.446       .  S
C320        C468   1.451       .  S
C321        C464   1.449       .  S
C322        C457   1.450       .  S
N333        C338   1.354       .  A
N333        C821   1.355       .  A
N333        H365   1.031       .  S
N334        C341   1.350   1_556  A
N334        C342   1.349       .  A
N335        C340   1.355       .  A
N335        C823   1.353       .  A
N335        H366   1.033       .  S
N336        C343   1.350   1_556  A
N336        C344   1.350       .  A
C337        N817   1.355   1_455  A
C337        C345   1.387       .  A
C337        C353   1.419       .  A
C338        C354   1.419       .  A
C338        C346   1.389       .  A
C339        N819   1.353   1_455  A
C339        C347   1.389       .  A
C339        C356   1.419       .  A
C340        C355   1.417       .  A
C340        C348   1.387       .  A
C341        C353   1.414       .  A
C341        C349   1.384       .  A
C342        C356   1.413       .  A
C342        C350   1.386       .  A
C343        C351   1.386       .  A
C343        C354   1.414       .  A
C344        C352   1.384       .  A
C344        C355   1.413       .  A
C345        C830   1.368   1_455  A
C345        H357   1.081       .  S
C346        C829   1.368       .  A
C346        H358   1.081       .  S
C347        C832   1.369   1_455  A
C347        H359   1.082       .  S
C348        C831   1.369       .  A
C348        H360   1.082       .  S
C349        C350   1.374   1_554  A
C349        H361   1.080       .  S
C350        H362   1.082       .  S
C351        C352   1.374   1_554  A
C351        H363   1.082       .  S
C352        H364   1.079       .  S
C353        C445   1.453       .  S
C354        C452   1.447       .  S
C355        C437   1.452       .  S
C356        C444   1.445       .  S
C367        C852   1.420       .  A
C367        C372   1.404       .  A
C368        C434   1.473       .  S
C368        C851   1.420   1_455  A
C368        C369   1.406       .  A
C369        C370   1.397       .  A
C369        H374   1.085       .  S
C370        C855   1.404   1_455  A
C370        C469   1.444       .  S
C371        C854   1.404       .  A
C371        C372   1.395       .  A
C371        C453   1.441       .  S
C372        H373   1.085       .  S
C375        C435   1.475       .  S
C375        C376   1.421       .  A
C375        C380   1.408       .  A
C376        C377   1.406       .  A
C377        C378   1.397       .  A
C377        H382   1.085       .  S
C378        C379   1.404       .  A
C378        C449   1.442       .  S
C379        C380   1.398       .  A
C379        C465   1.447       .  S
C380        H381   1.085       .  S
C383        C868   1.421       .  A
C383        C388   1.407       .  A
C384        C416   1.473       .  S
C384        C867   1.421   1_455  A
C384        C385   1.406       .  A
C385        C386   1.396       .  A
C385        H390   1.085       .  S
C386        C871   1.404   1_455  A
C386        C473   1.446       .  S
C387        C870   1.404       .  A
C387        C388   1.399       .  A
C387        C460   1.443       .  S
C388        H389   1.085       .  S
C391        C392   1.421       .  A
C391        C396   1.409       .  A
C392        C431   1.478       .  S
C392        C393   1.407       .  A
C393        C394   1.398       .  A
C393        H398   1.085       .  S
C394        C395   1.404       .  A
C394        C461   1.444       .  S
C395        C396   1.398       .  A
C395        C440   1.447       .  S
C396        H397   1.085       .  S
C399        C420   1.473       .  S
C399        C404   1.404       .  A
C400        C401   1.408       .  A
C401        C402   1.398       .  A
C401        H406   1.085       .  S
C402        C477   1.448       .  S
C403        C404   1.396       .  A
C403        C441   1.440       .  S
C404        H405   1.085       .  S
C407        C430   1.476       .  S
C407        C412   1.409       .  A
C408        C409   1.405       .  A
C409        C410   1.396       .  A
C409        H414   1.085       .  S
C410        C481   1.442       .  S
C411        C412   1.399       .  A
C411        C448   1.447       .  S
C412        H413   1.085       .  S
O415        C430   1.260       .  A
O415       Al423   1.891       .  S
C416        O426   1.260       .  A
C416        O417   1.267       .  A
O417       Al419   1.949       .  S
O418        C420   1.259       .  A
O418       Al419   1.881       .  S
Al419       O427   1.885       .  S
Al419       O429   1.945       .  S
Al419       O428   1.784       .  S
C420        O433   1.267       .  A
O421        C431   1.260       .  A
O421       Al423   1.890       .  S
O422        C435   1.261       .  A
O422       Al432   1.890       .  S
Al423       O436   1.947       .  S
Al423       O433   1.948       .  S
Al423       O428   1.783       .  S
O424        C431   1.267       .  A
O424       Al432   1.952       .  S
O425        C434   1.267       .  A
O425       Al432   1.947       .  S
O426       Al432   1.884       .  S
O427        C434   1.259       .  A
O428       Al432   1.784       .  S
O429        C430   1.266       .  A
C435        O436   1.267       .  A
C437        C438   1.207       .  T
C438        C439   1.413       .  S
C439        C440   1.206       .  T
C441        C442   1.202       .  T
C442        C443   1.405       .  S
C443        C444   1.202       .  T
C445        C446   1.207       .  T
C446        C447   1.413       .  S
C447        C448   1.206       .  T
C449        C450   1.203       .  T
C450        C451   1.407       .  S
C451        C452   1.203       .  T
C453        C454   1.203       .  T
C454        C455   1.406       .  S
C455        C456   1.203       .  T
C457        C458   1.205       .  T
C458        C459   1.409       .  S
C459        C460   1.204       .  T
C461        C462   1.204       .  T
C462        C463   1.409       .  S
C463        C464   1.204       .  T
C465        C466   1.206       .  T
C466        C467   1.412       .  S
C467        C468   1.206       .  T
C469        C470   1.204       .  T
C470        C471   1.409       .  S
C471        C472   1.205       .  T
C473        C474   1.205       .  T
C474        C475   1.410       .  S
C475        C476   1.205       .  T
C477        C478   1.207       .  T
C478        C479   1.413       .  S
C479        C480   1.207       .  T
C481        C482   1.203       .  T
C482        C483   1.407       .  S
C483        C484   1.203       .  T
O485        C500   1.261       .  A
O485       Al493   1.893       .  S
C486        O496   1.260       .  A
C486        O487   1.267       .  A
C486        C650   1.475       .  S
O487       Al489   1.949       .  S
O488        C490   1.260       .  A
O488       Al489   1.884       .  S
Al489       O497   1.887       .  S
Al489       O499   1.948       .  S
Al489       O498   1.784       .  S
C490        O503   1.267       .  A
C490        C609   1.474       .  S
O491        C501   1.260       .  A
O491       Al493   1.888       .  S
O492        C505   1.260       .  A
O492       Al502   1.888       .  S
Al493       O506   1.947       .  S
Al493       O503   1.950       .  S
Al493       O498   1.784       .  S
O494        C501   1.267       .  A
O494       Al502   1.951       .  S
O495        C504   1.267       .  A
O495       Al502   1.946       .  S
O496       Al502   1.886       .  S
O497        C504   1.260       .  A
O498       Al502   1.784       .  S
O499        C500   1.266       .  A
C500        C625   1.478       .  S
C501        C618   1.477       .  S
C504        C642   1.473       .  S
C505        O506   1.267       .  A
C505        C633   1.475       .  S
N507        C512   1.354       .  A
N507        C511   1.355       .  A
N507        H539   1.028       .  S
N508        C515   1.350   1_556  A
N508        C516   1.348       .  A
N509        C514   1.356       .  A
N509        C513   1.355       .  A
N509        H540   1.032       .  S
N510        C517   1.349   1_556  A
N510        C518   1.350       .  A
C511        C519   1.387       .  A
C511        C527   1.419       .  A
C512        C528   1.419       .  A
C512        C520   1.389       .  A
C513        C521   1.388       .  A
C513        C530   1.419       .  A
C514        C529   1.419       .  A
C514        C522   1.387       .  A
C515        C527   1.412       .  A
C515        C523   1.386       .  A
C516        C530   1.413       .  A
C516        C524   1.385       .  A
C517        C525   1.386       .  A
C517        C528   1.413       .  A
C518        C526   1.386       .  A
C518        C529   1.413       .  A
C519        C520   1.368       .  A
C519        H531   1.081       .  S
C520        H532   1.082       .  S
C521        C522   1.368       .  A
C521        H533   1.082       .  S
C522        H534   1.082       .  S
C523        C524   1.374   1_554  A
C523        H535   1.082       .  S
C524        H536   1.080       .  S
C525        C526   1.374   1_554  A
C525        H537   1.080       .  S
C526        H538   1.082       .  S
C527        C714   1.450       .  S
C528        C726   1.447       .  S
C529        C722   1.452       .  S
C530        C718   1.449       .  S
N541        C546   1.355       .  A
N541        C787   1.354       .  A
N541        H573   1.034       .  S
N542        C549   1.349   1_556  A
N542        C550   1.349       .  A
N543        C548   1.354       .  A
N543        C789   1.355       .  A
N543        H574   1.032       .  S
N544        C551   1.350   1_556  A
N544        C552   1.349       .  A
C545        N783   1.354   1_545  A
C545        C553   1.389       .  A
C545        C561   1.417       .  A
C546        C562   1.417       .  A
C546        C554   1.387       .  A
C547        N785   1.355   1_545  A
C547        C555   1.387       .  A
C547        C564   1.418       .  A
C548        C563   1.419       .  A
C548        C556   1.388       .  A
C549        C561   1.411       .  A
C549        C557   1.385       .  A
C550        C564   1.411       .  A
C550        C558   1.385       .  A
C551        C559   1.385       .  A
C551        C562   1.412       .  A
C552        C560   1.385       .  A
C552        C563   1.413       .  A
C553        C796   1.368   1_545  A
C553        H565   1.082       .  S
C554        C795   1.368       .  A
C554        H566   1.082       .  S
C555        C798   1.367   1_545  A
C555        H567   1.081       .  S
C556        C797   1.367       .  A
C556        H568   1.081       .  S
C557        C558   1.374   1_554  A
C557        H569   1.081       .  S
C558        H570   1.080       .  S
C559        C560   1.374   1_554  A
C559        H571   1.081       .  S
C560        H572   1.080       .  S
C561        C698   1.446       .  S
C562        C710   1.451       .  S
C563        C706   1.449       .  S
C564        C699   1.450       .  S
N575        C580   1.353       .  A
N575        H607   1.031       .  S
N576        C583   1.350   1_556  A
N576        C584   1.349       .  A
N577        C582   1.355       .  A
N577        H608   1.033       .  S
N578        C585   1.350   1_556  A
N578        C586   1.350       .  A
C579        C587   1.387       .  A
C579        C595   1.419       .  A
C580        C596   1.419       .  A
C580        C588   1.389       .  A
C581        C589   1.389       .  A
C581        C598   1.419       .  A
C582        C597   1.417       .  A
C582        C590   1.387       .  A
C583        C595   1.413       .  A
C583        C591   1.384       .  A
C584        C598   1.413       .  A
C584        C592   1.386       .  A
C585        C593   1.386       .  A
C585        C596   1.413       .  A
C586        C594   1.384       .  A
C586        C597   1.413       .  A
C587        H599   1.081       .  S
C588        H600   1.081       .  S
C589        H601   1.082       .  S
C590        H602   1.082       .  S
C591        C592   1.374   1_554  A
C591        H603   1.080       .  S
C592        H604   1.082       .  S
C593        C594   1.374   1_554  A
C593        H605   1.082       .  S
C594        H606   1.079       .  S
C595        C687   1.453       .  S
C596        C694   1.447       .  S
C597        C679   1.452       .  S
C598        C686   1.445       .  S
C609        C614   1.405       .  A
C610        C676   1.473       .  S
C610        C611   1.406       .  A
C611        C612   1.397       .  A
C611        H616   1.085       .  S
C612        C711   1.443       .  S
C613        C614   1.396       .  A
C613        C695   1.442       .  S
C614        H615   1.085       .  S
C617        C677   1.475       .  S
C617        C618   1.421       .  A
C617        C622   1.408       .  A
C618        C619   1.406       .  A
C619        C620   1.397       .  A
C619        H624   1.085       .  S
C620        C621   1.404       .  A
C620        C691   1.442       .  S
C621        C622   1.398       .  A
C621        C707   1.447       .  S
C622        H623   1.085       .  S
C625        C630   1.407       .  A
C626        C658   1.473       .  S
C626        C627   1.406       .  A
C627        C628   1.396       .  A
C627        H632   1.085       .  S
C628        C715   1.445       .  S
C629        C630   1.399       .  A
C629        C702   1.443       .  S
C630        H631   1.085       .  S
C633        C634   1.421       .  A
C633        C638   1.408       .  A
C634        C673   1.478       .  S
C634        C635   1.406       .  A
C635        C636   1.398       .  A
C635        H640   1.085       .  S
C636        C637   1.404       .  A
C636        C703   1.444       .  S
C637        C638   1.398       .  A
C637        C682   1.447       .  S
C638        H639   1.085       .  S
C641        C662   1.473       .  S
C641        C884   1.420       .  A
C641        C646   1.404       .  A
C642        C883   1.420   1_545  A
C642        C643   1.407       .  A
C643        C644   1.398       .  A
C643        H648   1.085       .  S
C644        C887   1.405   1_545  A
C644        C719   1.447       .  S
C645        C886   1.404       .  A
C645        C646   1.396       .  A
C645        C683   1.440       .  S
C646        H647   1.085       .  S
C649        C672   1.476       .  S
C649        C892   1.422       .  A
C649        C654   1.408       .  A
C650        C891   1.421   1_545  A
C650        C651   1.405       .  A
C651        C652   1.396       .  A
C651        H656   1.085       .  S
C652        C895   1.404   1_545  A
C652        C723   1.442       .  S
C653        C894   1.404       .  A
C653        C654   1.399       .  A
C653        C690   1.447       .  S
C654        H655   1.085       .  S
O657        C672   1.260       .  A
O657       Al665   1.891       .  S
C658        O668   1.260       .  A
C658        O659   1.267       .  A
O659       Al661   1.950       .  S
O660        C662   1.259       .  A
O660       Al661   1.882       .  S
Al661       O669   1.885       .  S
Al661       O671   1.947       .  S
Al661       O670   1.784       .  S
C662        O675   1.267       .  A
O663        C673   1.260       .  A
O663       Al665   1.889       .  S
O664        C677   1.260       .  A
O664       Al674   1.888       .  S
Al665       O678   1.948       .  S
Al665       O675   1.949       .  S
Al665       O670   1.782       .  S
O666        C673   1.267       .  A
O666       Al674   1.952       .  S
O667        C676   1.267       .  A
O667       Al674   1.948       .  S
O668       Al674   1.883       .  S
O669        C676   1.260       .  A
O670       Al674   1.784       .  S
O671        C672   1.266       .  A
C677        O678   1.267       .  A
C679        C680   1.206       .  T
C680        C681   1.412       .  S
C681        C682   1.206       .  T
C683        C684   1.202       .  T
C684        C685   1.405       .  S
C685        C686   1.202       .  T
C687        C688   1.207       .  T
C688        C689   1.412       .  S
C689        C690   1.206       .  T
C691        C692   1.203       .  T
C692        C693   1.407       .  S
C693        C694   1.203       .  T
C695        C696   1.203       .  T
C696        C697   1.406       .  S
C697        C698   1.203       .  T
C699        C700   1.204       .  T
C700        C701   1.409       .  S
C701        C702   1.204       .  T
C703        C704   1.204       .  T
C704        C705   1.408       .  S
C705        C706   1.204       .  T
C707        C708   1.206       .  T
C708        C709   1.411       .  S
C709        C710   1.206       .  T
C711        C712   1.204       .  T
C712        C713   1.409       .  S
C713        C714   1.205       .  T
C715        C716   1.205       .  T
C716        C717   1.410       .  S
C717        C718   1.205       .  T
C719        C720   1.207       .  T
C720        C721   1.412       .  S
C721        C722   1.207       .  T
C723        C724   1.203       .  T
C724        C725   1.406       .  S
C725        C726   1.203       .  T
O727        C742   1.261       .  A
O727       Al735   1.893       .  S
C728        O738   1.260       .  A
C728        O729   1.267       .  A
C728        C892   1.476       .  S
O729       Al731   1.950       .  S
O730        C732   1.260       .  A
O730       Al731   1.883       .  S
Al731       O739   1.887       .  S
Al731       O741   1.948       .  S
Al731       O740   1.784       .  S
C732        O745   1.267       .  A
C732        C851   1.473       .  S
O733        C743   1.260       .  A
O733       Al735   1.888       .  S
O734        C747   1.260       .  A
O734       Al744   1.888       .  S
Al735       O748   1.947       .  S
Al735       O745   1.950       .  S
Al735       O740   1.783       .  S
O736        C743   1.267       .  A
O736       Al744   1.951       .  S
O737        C746   1.267       .  A
O737       Al744   1.947       .  S
O738       Al744   1.887       .  S
O739        C746   1.260       .  A
O740       Al744   1.784       .  S
O741        C742   1.267       .  A
C742        C867   1.478       .  S
C743        C860   1.477       .  S
C746        C884   1.473       .  S
C747        O748   1.267       .  A
C747        C875   1.475       .  S
N749        C754   1.354       .  A
N749        C753   1.355       .  A
N749        H781   1.029       .  S
N750        C757   1.350   1_556  A
N750        C758   1.348       .  A
N751        C756   1.356       .  A
N751        C755   1.355       .  A
N751        H782   1.032       .  S
N752        C759   1.349   1_556  A
N752        C760   1.350       .  A
C753        C761   1.387       .  A
C753        C769   1.419       .  A
C754        C770   1.419       .  A
C754        C762   1.389       .  A
C755        C763   1.388       .  A
C755        C772   1.419       .  A
C756        C771   1.419       .  A
C756        C764   1.387       .  A
C757        C769   1.412       .  A
C757        C765   1.386       .  A
C758        C772   1.413       .  A
C758        C766   1.385       .  A
C759        C767   1.386       .  A
C759        C770   1.413       .  A
C760        C768   1.386       .  A
C760        C771   1.413       .  A
C761        C762   1.368       .  A
C761        H773   1.081       .  S
C762        H774   1.081       .  S
C763        C764   1.368       .  A
C763        H775   1.082       .  S
C764        H776   1.082       .  S
C765        C766   1.374   1_554  A
C765        H777   1.082       .  S
C766        H778   1.080       .  S
C767        C768   1.374   1_554  A
C767        H779   1.080       .  S
C768        H780   1.082       .  S
C769        C956   1.450       .  S
C770        C968   1.447       .  S
C771        C964   1.452       .  S
C772        C960   1.449       .  S
N783        C788   1.355       .  A
N783        H815   1.034       .  S
N784        C791   1.349   1_556  A
N784        C792   1.349       .  A
N785        C790   1.355       .  A
N785        H816   1.032       .  S
N786        C793   1.350   1_556  A
N786        C794   1.349       .  A
C787        C795   1.389       .  A
C787        C803   1.417       .  A
C788        C804   1.417       .  A
C788        C796   1.387       .  A
C789        C797   1.387       .  A
C789        C806   1.418       .  A
C790        C805   1.419       .  A
C790        C798   1.388       .  A
C791        C803   1.411       .  A
C791        C799   1.385       .  A
C792        C806   1.411       .  A
C792        C800   1.385       .  A
C793        C801   1.385       .  A
C793        C804   1.412       .  A
C794        C802   1.385       .  A
C794        C805   1.413       .  A
C795        H807   1.082       .  S
C796        H808   1.082       .  S
C797        H809   1.081       .  S
C798        H810   1.081       .  S
C799        C800   1.374   1_554  A
C799        H811   1.081       .  S
C800        H812   1.080       .  S
C801        C802   1.374   1_554  A
C801        H813   1.081       .  S
C802        H814   1.080       .  S
C803        C940   1.446       .  S
C804        C952   1.451       .  S
C805        C948   1.449       .  S
C806        C941   1.450       .  S
N817        C822   1.353       .  A
N817        H849   1.030       .  S
N818        C825   1.350   1_556  A
N818        C826   1.349       .  A
N819        C824   1.355       .  A
N819        H850   1.033       .  S
N820        C827   1.350   1_556  A
N820        C828   1.350       .  A
C821        C829   1.387       .  A
C821        C837   1.419       .  A
C822        C838   1.420       .  A
C822        C830   1.389       .  A
C823        C831   1.389       .  A
C823        C840   1.418       .  A
C824        C839   1.418       .  A
C824        C832   1.387       .  A
C825        C837   1.413       .  A
C825        C833   1.384       .  A
C826        C840   1.412       .  A
C826        C834   1.386       .  A
C827        C835   1.386       .  A
C827        C838   1.414       .  A
C828        C836   1.384       .  A
C828        C839   1.413       .  A
C829        H841   1.081       .  S
C830        H842   1.081       .  S
C831        H843   1.082       .  S
C832        H844   1.082       .  S
C833        C834   1.374   1_554  A
C833        H845   1.080       .  S
C834        H846   1.082       .  S
C835        C836   1.374   1_554  A
C835        H847   1.082       .  S
C836        H848   1.079       .  S
C837        C929   1.453       .  S
C838        C936   1.447       .  S
C839        C921   1.452       .  S
C840        C928   1.444       .  S
C851        C856   1.404       .  A
C852        C918   1.472       .  S
C852        C853   1.406       .  A
C853        C854   1.397       .  A
C853        H858   1.085       .  S
C854        C953   1.444       .  S
C855        C856   1.396       .  A
C855        C937   1.441       .  S
C856        H857   1.085       .  S
C859        C919   1.475       .  S
C859        C860   1.421       .  A
C859        C864   1.408       .  A
C860        C861   1.406       .  A
C861        C862   1.397       .  A
C861        H866   1.085       .  S
C862        C863   1.404       .  A
C862        C933   1.442       .  S
C863        C864   1.398       .  A
C863        C949   1.447       .  S
C864        H865   1.085       .  S
C867        C872   1.407       .  A
C868        C900   1.473       .  S
C868        C869   1.406       .  A
C869        C870   1.396       .  A
C869        H874   1.085       .  S
C870        C957   1.445       .  S
C871        C872   1.399       .  A
C871        C944   1.443       .  S
C872        H873   1.085       .  S
C875        C876   1.421       .  A
C875        C880   1.408       .  A
C876        C915   1.478       .  S
C876        C877   1.406       .  A
C877        C878   1.398       .  A
C877        H882   1.085       .  S
C878        C879   1.404       .  A
C878        C945   1.444       .  S
C879        C880   1.398       .  A
C879        C924   1.446       .  S
C880        H881   1.085       .  S
C883        C904   1.473       .  S
C883        C888   1.404       .  A
C884        C885   1.407       .  A
C885        C886   1.398       .  A
C885        H890   1.085       .  S
C886        C961   1.447       .  S
C887        C888   1.395       .  A
C887        C925   1.439       .  S
C888        H889   1.085       .  S
C891        C914   1.475       .  S
C891        C896   1.408       .  A
C892        C893   1.405       .  A
C893        C894   1.396       .  A
C893        H898   1.085       .  S
C894        C965   1.442       .  S
C895        C896   1.398       .  A
C895        C932   1.447       .  S
C896        H897   1.085       .  S
O899        C914   1.260       .  A
O899       Al907   1.891       .  S
C900        O910   1.260       .  A
C900        O901   1.267       .  A
O901       Al903   1.949       .  S
O902        C904   1.259       .  A
O902       Al903   1.881       .  S
Al903       O911   1.885       .  S
Al903       O913   1.945       .  S
Al903       O912   1.785       .  S
C904        O917   1.267       .  A
O905        C915   1.260       .  A
O905       Al907   1.889       .  S
O906        C919   1.260       .  A
O906       Al916   1.889       .  S
Al907       O920   1.947       .  S
Al907       O917   1.949       .  S
Al907       O912   1.782       .  S
O908        C915   1.267       .  A
O908       Al916   1.951       .  S
O909        C918   1.267       .  A
O909       Al916   1.947       .  S
O910       Al916   1.884       .  S
O911        C918   1.259       .  A
O912       Al916   1.784       .  S
O913        C914   1.266       .  A
C919        O920   1.267       .  A
C921        C922   1.206       .  T
C922        C923   1.412       .  S
C923        C924   1.206       .  T
C925        C926   1.201       .  T
C926        C927   1.404       .  S
C927        C928   1.202       .  T
C929        C930   1.207       .  T
C930        C931   1.413       .  S
C931        C932   1.206       .  T
C933        C934   1.203       .  T
C934        C935   1.407       .  S
C935        C936   1.203       .  T
C937        C938   1.203       .  T
C938        C939   1.406       .  S
C939        C940   1.203       .  T
C941        C942   1.205       .  T
C942        C943   1.409       .  S
C943        C944   1.204       .  T
C945        C946   1.204       .  T
C946        C947   1.408       .  S
C947        C948   1.204       .  T
C949        C950   1.206       .  T
C950        C951   1.412       .  S
C951        C952   1.206       .  T
C953        C954   1.204       .  T
C954        C955   1.409       .  S
C955        C956   1.205       .  T
C957        C958   1.204       .  T
C958        C959   1.409       .  S
C959        C960   1.204       .  T
C961        C962   1.206       .  T
C962        C963   1.412       .  S
C963        C964   1.206       .  T
C965        C966   1.203       .  T
C966        C967   1.407       .  S
C967        C968   1.203       .  T
