geometry optimzed in LAMMPS
_audit_creation_date              2020-11-30 
_audit_creation_method            'lammps2cif' 
_symmetry_space_group_name_H-M    'P1' 
_symmetry_Int_Tables_number       1 
_symmetry_cell_setting            triclinic 
loop_ 
_symmetry_equiv_pos_as_xyz 
  x,y,z 
_cell_length_a                    35.23341794205624 
_cell_length_b                    34.91471851585695 
_cell_length_c                    26.05397215276477 
_cell_angle_alpha                 90.01128771757035 
_cell_angle_beta                  90.60268641070665 
_cell_angle_gamma                 120.70193182046435 
loop_ 
_atom_site_label 
_atom_site_type_symbol 
_atom_site_fract_x 
_atom_site_fract_y 
_atom_site_fract_z 
_atom_site_charge 
C1          C  0.14054685  0.06825819  0.37828222    -0.00160
C2          C  0.17565667  0.08760336  0.41204826    -0.00160
C3          C  0.19053765  0.09368876  0.16717757    -0.00160
C4          C  0.15427099  0.07449408  0.19838665    -0.00160
O5          O  0.12416736  0.49064070  0.35082663    -0.73670
O6          O  0.03761511  0.40873296  0.22708314    -0.74650
O7          O  0.13912319  0.49939722  0.23286345    -0.63270
O8          O  0.03810708  0.41027040  0.33292505    -0.71680
O9          O  0.03475015  0.47125056  0.34056058    -0.71230
O10         O  0.08733112  0.00558706  0.19830521    -0.62480
O11         O  0.01400931  0.45395889  0.24022630    -0.74990
O12         O  0.12070653  0.03620237  0.30033132    -0.73770
Cu13       Cu  0.08810515  0.44912574  0.28461634     1.04560
Cu14       Cu  0.06387869  0.49348179  0.27036462     1.04330
C15         C  0.13033974  0.02962849  0.34341939     0.92530
C16         C  0.00613135  0.41779157  0.22234055     0.91670
C17         C  0.12788755  0.02258343  0.20424685     0.83820
C18         C  0.01930437  0.43002140  0.35189661     0.90090
C19         C  0.46007125  0.39287074  0.19648613    -0.00160
C20         C  0.44943952  0.36139457  0.15975682    -0.00160
C21         C  0.45856656  0.36831981  0.40545890    -0.00160
C22         C  0.47312478  0.40442166  0.37453820    -0.00160
C23         C  0.46677123  0.08179236  0.20085820    -0.00160
C24         C  0.44562619  0.09512705  0.16717680    -0.00160
C25         C  0.47116210  0.07191737  0.37834400    -0.00160
C26         C  0.44977171  0.08876302  0.40631149    -0.00160
O27         O  0.03583443  0.08460345  0.20189942    -0.73670
O28         O  0.07474047  0.06414972  0.34273506    -0.74650
O29         O  0.00909490  0.08273770  0.30530719    -0.63270
O30         O  0.09335940  0.06713149  0.24050548    -0.71680
O31         O  0.13704654  0.13694494  0.23012713    -0.71230
O32         O  0.05144303  0.13430782  0.35609066    -0.62480
O33         O  0.13392733  0.13065394  0.34038575    -0.74990
O34         O  0.04233445  0.14233627  0.23851399    -0.73770
Cu35       Cu  0.05203184  0.07297681  0.27292885     1.04560
Cu36       Cu  0.09420186  0.14227433  0.29025105     1.04330
C37         C  0.01890839  0.10821402  0.20836083     0.92530
C38         C  0.11511982  0.09048234  0.35678418     0.91670
C39         C  0.01317228  0.10005511  0.34735583     0.83820
C40         C  0.12902332  0.09639584  0.22306134     0.90090
O41         O  0.40910014  0.41809238  0.35254623    -0.73670
O42         O  0.40458250  0.50192004  0.23013810    -0.74650
O43         O  0.39931119  0.40351715  0.23384191    -0.63270
O44         O  0.40959180  0.50276878  0.33908554    -0.71680
O45         O  0.47445515  0.00865580  0.34525743    -0.71230
O46         O  0.45611453  0.45785328  0.19972992    -0.62480
O47         O  0.47360078  0.02882147  0.24397375    -0.74990
O48         O  0.45754540  0.42571303  0.30004222    -0.73770
Cu49       Cu  0.39907852  0.45288333  0.28793469     1.04560
Cu50       Cu  0.46739320  0.48080429  0.27272648     1.04330
C51         C  0.44277581  0.41440810  0.34302965     0.92530
C52         C  0.44495880  0.03498554  0.22542875     0.91670
C53         C  0.43310680  0.41667057  0.20401236     0.83820
C54         C  0.44891023  0.02351451  0.35759801     0.90090
C55         C  0.08944560  0.15065676  0.86092703    -0.00160
C56         C  0.11276200  0.18603223  0.89420976    -0.00160
C57         C  0.08258919  0.46052119  0.87920541    -0.00160
C58         C  0.10624389  0.44394179  0.90401985    -0.00160
C59         C  0.40102278  0.45419359  0.85643750    -0.00160
C60         C  0.37448886  0.43970084  0.89850892    -0.00160
C61         C  0.09543299  0.44787322  0.70941059    -0.00160
C62         C  0.10652690  0.42686264  0.67343202    -0.00160
O63         O  0.14993536  0.02988585  0.73237296    -0.73670
O64         O  0.14697155  0.12981172  0.82986409    -0.74650
O65         O  0.14332704  0.03503936  0.84001805    -0.63270
O66         O  0.14949896  0.12454864  0.72328785    -0.71680
O67         O  0.08021835  0.07478963  0.70894860    -0.71230
O68         O  0.07436124  0.00990563  0.82637570    -0.62480
O69         O  0.07762401  0.08299132  0.82215244    -0.74990
O70         O  0.08094923  0.00553838  0.71459538    -0.73770
Cu71       Cu  0.15185262  0.08188684  0.78099518     1.04560
Cu72       Cu  0.07753320  0.04297822  0.76819803     1.04330
C73         C  0.11265875  0.99860017  0.71369529     0.92530
C74         C  0.10719420  0.12079283  0.83780730     0.91670
C75         C  0.10296516  0.00517863  0.84925869     0.83820
C76         C  0.11119219  0.11387322  0.70447723     0.90090
C77         C  0.09334423  0.14372206  0.68957428    -0.00160
C78         C  0.11290493  0.17600182  0.65345221    -0.00160
C79         C  0.43189237  0.46239485  0.68620890    -0.00160
C80         C  0.39655148  0.44811497  0.65285130    -0.00160
O81         O  0.02127092  0.08950533  0.87049089    -0.73670
O82         O  0.48825573  0.01983495  0.74025711    -0.74650
O83         O  0.05167422  0.11095427  0.76116762    -0.63270
O84         O  0.46973417  0.01492256  0.84710244    -0.71680
O85         O  0.42072885  0.03194518  0.82293476    -0.71230
O86         O  0.51238328  0.12229710  0.70825020    -0.62480
O87         O  0.43385234  0.03033317  0.71964440    -0.74990
O88         O  0.51590066  0.13594458  0.82280062    -0.73770
Cu89       Cu  0.50844611  0.05862152  0.80390811     1.04560
Cu90       Cu  0.46730283  0.08304667  0.76949783     1.04330
C91         C  0.03875167  0.12821369  0.85658310     0.92530
C92         C  0.45223922  0.00693644  0.71527987     0.91670
C93         C  0.05010484  0.12768324  0.71977348     0.83820
C94         C  0.43008560  0.00382801  0.84392141     0.90090
O95         O  0.05364198  0.44687115  0.77608154    -0.73670
O96         O  0.44851836  0.45302133  0.79639315    -0.74650
O97         O  0.01104619  0.45326038  0.86564340    -0.63270
O98         O  0.49326753  0.45534835  0.71074052    -0.71680
O99         O  0.43021062  0.39589672  0.72411020    -0.71230
O100        O  0.51126836  0.39416015  0.84622431    -0.62480
O101        O  0.42177517  0.39320347  0.83947420    -0.74990
O102        O  0.51414311  0.38929906  0.73047800    -0.73770
Cu103      Cu  0.50308016  0.45473690  0.78729551     1.04560
Cu104      Cu  0.46575581  0.38635869  0.78533972     1.04330
C105        C  0.05248924  0.42360722  0.74005381     0.92530
C106        C  0.42200217  0.42959260  0.82996547     0.91670
C107        C  0.03078042  0.43181626  0.87078894     0.83820
C108        C  0.45220298  0.43393486  0.70135731     0.90090
C109        C  0.30138658  0.28065912  0.02543959    -0.00160
C110        C  0.26215010  0.24094582  0.02490315    -0.00160
C111        C  0.02499814  0.28704678  0.03466491    -0.00160
C112        C  0.02983766  0.25058729  0.03532190    -0.00160
C113        C  0.25168638  0.00430063  0.02775974    -0.00160
C114        C  0.28839381  0.99989604  0.03705947    -0.00160
C115        C  0.26108403  0.01429156  0.54160382    -0.00160
C116        C  0.29893679  0.01139388  0.53693285    -0.00160
C117        C  0.01870871  0.28340638  0.53259381    -0.00160
C118        C  0.02577035  0.24784071  0.53480871    -0.00160
C119        C  0.26442049  0.24887023  0.52927855    -0.00160
C120        C  0.30450641  0.28768995  0.52813064    -0.00160
C121        C  0.32156955  0.32584229  0.56664913    -0.06850
C122        C  0.34270827  0.36831141  0.54391963    -0.17970
C123        C  0.37462072  0.40590523  0.57017534     0.10350
C124        C  0.37757717  0.40498641  0.62388004    -0.06770
C125        C  0.35311432  0.36365173  0.64866077    -0.18010
C126        C  0.32896335  0.32374268  0.62018698     0.10380
S127        S  0.41356594  0.45398987  0.53408777    -0.32970
S128        S  0.31263758  0.27291444  0.65422231    -0.32980
H129        H  0.31972019  0.25167239  0.61289638     0.28390
H130        H  0.40399196  0.43285652  0.48573664     0.28390
H131        H  0.33872787  0.37100597  0.50309853     0.18980
H132        H  0.35366426  0.36219662  0.69010369     0.18980
C133        C  0.37318185  0.47350744  0.63973667    -0.06850
C134        C  0.32668261  0.44820231  0.63975634    -0.17970
C135        C  0.30054712  0.45853626  0.60805939     0.10350
C136        C  0.32017155  0.49968987  0.58135835    -0.06770
C137        C  0.36610499  0.52877831  0.58937855    -0.18010
C138        C  0.39301448  0.51528771  0.61442893     0.10380
S139        S  0.24537433  0.41364964  0.59506212    -0.32970
S140        S  0.45188563  0.55120576  0.60601644    -0.32980
H141        H  0.46413753  0.51894896  0.60962384     0.28390
H142        H  0.23939191  0.39156997  0.64210621     0.28390
H143        H  0.31105440  0.41610702  0.65849316     0.18980
H144        H  0.38224010  0.06054354  0.56991130     0.18980
C145        C  0.15947828  0.19350471  0.63710253    -0.06850
C146        C  0.18563856  0.24028430  0.63380989    -0.17970
C147        C  0.21823526  0.25977270  0.59678126     0.10350
C148        C  0.23467920  0.23441451  0.57457306    -0.06770
C149        C  0.21511014  0.18918620  0.58820908    -0.18010
C150        C  0.17428740  0.16752409  0.61213749     0.10380
S151        S  0.22815419  0.31187744  0.57146296    -0.32970
S152        S  0.14022495  0.10881394  0.59762399    -0.32980
H153        H  0.10055176  0.10899323  0.59256196     0.28390
H154        H  0.22787950  0.30006477  0.51993221     0.28390
H155        H  0.17417871  0.26067598  0.65135374     0.18980
H156        H  0.22680041  0.16893254  0.57088062     0.18980
C157        C  0.05861228  0.24420143  0.56906008    -0.06850
C158        C  0.05311053  0.23834900  0.62239329    -0.17970
C159        C  0.07292902  0.21967625  0.65138769     0.10350
C160        C  0.09103866  0.19731550  0.62631611    -0.06770
C161        C  0.09777808  0.20372571  0.57306359    -0.18010
C162        C  0.08653166  0.23104873  0.54613659     0.10380
S163        S  0.07706140  0.22933195  0.71925768    -0.32970
S164        S  0.10826375  0.24724841  0.48236065    -0.32980
H165        H  0.10213152  0.28401064  0.48004770     0.28390
H166        H  0.11699542  0.23003619  0.72662090     0.28390
H167        H  0.03159860  0.24501875  0.64279748     0.18980
H168        H  0.11520378  0.19026615  0.55292995     0.18980
C169        C  0.22618209  0.48745078  0.58022317    -0.06850
C170        C  0.23025736  0.99870009  0.63295220    -0.17970
C171        C  0.19319265  0.47816312  0.66586071     0.10350
C172        C  0.15077791  0.44681012  0.64539106    -0.06770
C173        C  0.15069392  0.43035494  0.59578006    -0.18010
C174        C  0.18567196  0.45140643  0.56257081     0.10380
S175        S  0.20397462  0.98782369  0.73378439    -0.32970
S176        S  0.17559609  0.42822770  0.49829012    -0.32980
H177        H  0.21939157  0.44323830  0.48600303     0.28390
H178        H  0.16811441  0.94658965  0.74892584     0.28390
H179        H  0.26205418  0.02390316  0.64828034     0.18980
H180        H  0.12322434  0.40014034  0.58092328     0.18980
C181        C  0.02857258  0.31776569  0.57566412    -0.06850
C182        C  0.03636910  0.36073291  0.56416314    -0.17970
C183        C  0.05343350  0.39509926  0.60012225     0.10350
C184        C  0.06831881  0.38796489  0.64732301    -0.06770
C185        C  0.05065120  0.34371250  0.66347160    -0.18010
C186        C  0.02402192  0.30876372  0.62886859     0.10380
S187        S  0.06628467  0.44975084  0.57929981    -0.32970
S188        S  0.97260145  0.26414278  0.65356979    -0.32980
H189        H  0.94982914  0.25416360  0.60633509     0.28390
H190        H  0.05326804  0.45985793  0.62563781     0.28390
H191        H  0.02999607  0.36930516  0.52762531     0.18980
H192        H  0.05419181  0.33672480  0.70314838     0.18980
C193        C  0.36377664  0.39755758  0.92664888    -0.06850
C194        C  0.34080795  0.35514171  0.90309642    -0.17970
C195        C  0.32174831  0.31584808  0.93288164     0.10350
C196        C  0.31718390  0.31864817  0.98689217    -0.06770
C197        C  0.33799380  0.36166277  0.00884737    -0.18010
C198        C  0.36563429  0.39928304  0.98068298     0.10380
S199        S  0.30752795  0.26485410  0.89995184    -0.32970
S200        S  0.40353477  0.44888098  0.01591394    -0.32980
H201        H  0.43815854  0.45955365  0.98173158     0.28390
H202        H  0.31859365  0.24662933  0.94148262     0.28390
H203        H  0.33848489  0.35249149  0.86165576     0.18980
H204        H  0.33701521  0.36583508  0.04987625     0.18980
C205        C  0.35104408  0.46243300  0.92041307    -0.06850
C206        C  0.30680591  0.43250634  0.93380075    -0.17970
C207        C  0.28749568  0.44083353  0.97544639     0.10350
C208        C  0.30613882  0.48526897  0.99378190    -0.06770
C209        C  0.34638847  0.01787403  0.97310209    -0.18010
C210        C  0.37088998  0.00664923  0.94094253     0.10380
S211        S  0.24656695  0.39112455  0.00822967    -0.32970
S212        S  0.42779622  0.04984293  0.93632886    -0.32980
H213        H  0.44471638  0.02159380  0.94336676     0.28390
H214        H  0.23793406  0.41287467  0.04748921     0.28390
H215        H  0.29040001  0.39872281  0.91883616     0.18980
H216        H  0.36148192  0.05179636  0.98741427     0.18980
C217        C  0.04691172  0.32184061  0.99376513    -0.06850
C218        C  0.08799899  0.35915459  0.00569479    -0.17970
C219        C  0.09820881  0.40017433  0.98539581     0.10350
C220        C  0.08202851  0.40184009  0.93610363    -0.06770
C221        C  0.04902160  0.36059326  0.91560046    -0.18010
C222        C  0.02610200  0.32343272  0.94751079     0.10380
S223        S  0.12819057  0.44794918  0.02613552    -0.32970
S224        S  0.97078091  0.28253038  0.92732356    -0.32980
H225        H  0.96420607  0.24968579  0.96226516     0.28390
H226        H  0.11424867  0.47423136  0.00065843     0.28390
H227        H  0.10784410  0.35820334  0.03704375     0.18980
H228        H  0.04136381  0.35617183  0.87532883     0.18980
C229        C  0.15685783  0.46573158  0.90607580    -0.06850
C230        C  0.18697098  0.01144688  0.91714428    -0.17970
C231        C  0.22796213  0.02464691  0.94202731     0.10350
C232        C  0.22993596  0.49288249  0.97388545    -0.06770
C233        C  0.20346124  0.44857803  0.95711430    -0.18010
C234        C  0.17411976  0.43754020  0.91549669     0.10380
S235        S  0.27044240  0.08262881  0.94388243    -0.32970
S236        S  0.15165085  0.38329539  0.88611144    -0.32980
H237        H  0.13058295  0.39216733  0.84553278     0.28390
H238        H  0.30261756  0.07580105  0.96733943     0.28390
H239        H  0.17790242  0.03640377  0.91394918     0.18980
H240        H  0.19998658  0.42168275  0.97950661     0.18980
C241        C  0.23025531  0.22856178  0.98082438    -0.06850
C242        C  0.22011743  0.25959161  0.96022320    -0.17850
C243        C  0.18832215  0.24737483  0.92140501     0.10350
C244        C  0.15942002  0.20165704  0.91011827    -0.06770
C245        C  0.16976374  0.17078311  0.93060910    -0.18010
C246        C  0.20724798  0.18462731  0.96125263     0.10380
S247        S  0.18217012  0.29087369  0.89257676    -0.32970
S248        S  0.22387216  0.14464238  0.97372046    -0.32980
H249        H  0.26902099  0.17589974  0.98045615     0.28390
H250        H  0.16095040  0.26632233  0.84783387     0.28390
H251        H  0.23617711  0.29336584  0.97474317     0.18980
H252        H  0.14766424  0.13537893  0.92542811     0.18980
C253        C  0.05621530  0.24378597  0.99503219    -0.06850
C254        C  0.04419183  0.23691899  0.94289881    -0.17970
C255        C  0.06455323  0.22206444  0.90849193     0.10350
C256        C  0.09052455  0.20473005  0.92760883    -0.06770
C257        C  0.10169707  0.21151409  0.98048954    -0.18010
C258        C  0.08881778  0.23534097  0.01181355     0.10380
S259        S  0.06197031  0.23182391  0.84143264    -0.32970
S260        S  0.11496601  0.25722855  0.07282946    -0.32980
H261        H  0.12272264  0.30011716  0.06226288     0.28390
H262        H  0.04116353  0.25697636  0.84582363     0.28390
H263        H  0.01952277  0.24340946  0.92849823     0.18980
H264        H  0.12292286  0.20073460  0.99657255     0.18980
C265        C  0.00302917  0.20851926  0.49831967    -0.06850
C266        C  0.01009655  0.21262596  0.44475866    -0.17970
C267        C  0.99449635  0.17476356  0.41268973     0.10350
C268        C  0.47520875  0.13197964  0.43513791    -0.06770
C269        C  0.47014195  0.12857205  0.48861173    -0.18010
C270        C  0.48037279  0.16526337  0.51914958     0.10380
S271        S  0.99661958  0.18164859  0.34384757    -0.32970
S272        S  0.46118434  0.15435549  0.58427795    -0.32980
H273        H  0.45208392  0.18899818  0.58572039     0.28390
H274        H  0.01216341  0.22762163  0.34395756     0.28390
H275        H  0.02847046  0.24531573  0.42793589     0.18980
H276        H  0.45385021  0.09599165  0.50627782     0.18980
C277        C  0.32668342  0.02492441  0.48878418    -0.06850
C278        C  0.34311169  0.06716962  0.46704428    -0.17970
C279        C  0.37687051  0.08341568  0.43053661     0.10350
C280        C  0.40149105  0.06180617  0.42260726    -0.06770
C281        C  0.38342568  0.01856983  0.44238779    -0.18010
C282        C  0.34420098  0.99880078  0.47058587     0.10380
S283        S  0.38748803  0.13235990  0.39585605    -0.32970
S284        S  0.31835420  0.44010134  0.48281081    -0.32980
H285        H  0.27593578  0.43297198  0.48904161     0.28390
H286        H  0.40191178  0.12049072  0.35172794     0.28390
H287        H  0.33025083  0.08806577  0.47871301     0.18980
H288        H  0.40021550  0.00019207  0.43781601     0.18980
C289        C  0.39802013  0.06628004  0.14826234    -0.06850
C290        C  0.38246551  0.02266598  0.13117585    -0.17970
C291        C  0.34278474  0.99846174  0.10320832     0.10350
C292        C  0.32083091  0.01999402  0.08269732    -0.06770
C293        C  0.33590599  0.06370772  0.10056597    -0.18010
C294        C  0.37186189  0.08526366  0.13563871     0.10380
S295        S  0.32050979  0.43949847  0.09668389    -0.32970
S296        S  0.38399407  0.13765961  0.16282843    -0.32980
H297        H  0.40290115  0.13304958  0.20853410     0.28390
H298        H  0.34953437  0.43578402  0.13106816     0.28390
H299        H  0.40254607  0.00780256  0.13692157     0.18980
H300        H  0.32018162  0.08156076  0.08688594     0.18980
C301        C  0.47258969  0.13616208  0.13665670    -0.06850
C302        C  0.49215754  0.17854594  0.15926062    -0.17970
C303        C  0.51306550  0.21728214  0.12922703     0.10350
C304        C  0.00950593  0.21333611  0.07434618    -0.06770
C305        C  0.98986388  0.17011981  0.05307347    -0.18010
C306        C  0.97533569  0.13271833  0.08348283     0.10380
S307        S  0.54603565  0.26811387  0.16532083    -0.32970
S308        S  0.96436365  0.08184665  0.05297050    -0.32980
H309        H  0.97856536  0.06649223  0.09461321     0.28390
H310        H  0.57321796  0.29347072  0.12521878     0.28390
H311        H  0.49191452  0.18138092  0.20066700     0.18980
H312        H  0.98822382  0.16539498  0.01183409     0.18980
C313        C  0.41597088  0.35063888  0.43287974    -0.06850
C314        C  0.37475423  0.32911538  0.40732985    -0.17970
C315        C  0.33563919  0.30654156  0.43578936     0.10350
C316        C  0.33843604  0.29702303  0.48838241    -0.06770
C317        C  0.38028406  0.31174446  0.50994524    -0.18010
C318        C  0.41698104  0.34486398  0.48595623     0.10380
S319        S  0.28524151  0.29457970  0.40375413    -0.32970
S320        S  0.46208859  0.38296165  0.52604811    -0.32980
H321        H  0.47463003  0.41962092  0.49366698     0.28390
H322        H  0.26739684  0.30386762  0.44652357     0.28390
H323        H  0.37287498  0.33162025  0.36609713     0.18980
H324        H  0.38344973  0.30578462  0.55021128     0.18980
C325        C  0.48231498  0.34288929  0.41713285    -0.06850
C326        C  0.45386021  0.29647452  0.42504557    -0.17970
C327        C  0.46454572  0.27426549  0.46180788     0.10350
C328        C  0.00772986  0.29468841  0.48103675    -0.06770
C329        C  0.04018985  0.33305910  0.45615974    -0.18010
C330        C  0.02765141  0.36105309  0.43199274     0.10380
S331        S  0.42130579  0.22368918  0.48867722    -0.32970
S332        S  0.06842986  0.41951457  0.43955327    -0.32980
H333        H  0.03835000  0.43264720  0.45309692     0.28390
H334        H  0.41219731  0.24724292  0.52554339     0.28390
H335        H  0.42002253  0.27995978  0.41113870     0.18980
H336        H  0.07414280  0.34737437  0.46917496     0.18980
C337        C  0.40976792  0.34489431  0.12630248    -0.06850
C338        C  0.36783492  0.32557279  0.14827235    -0.17970
C339        C  0.33009086  0.30296017  0.11737827     0.10350
C340        C  0.33446358  0.29130307  0.06650131    -0.06770
C341        C  0.37634642  0.30474573  0.04778323    -0.18010
C342        C  0.41290690  0.33721923  0.07357575     0.10380
S343        S  0.27949992  0.29497209  0.14354835    -0.32970
S344        S  0.46114951  0.37001705  0.03546560    -0.32980
H345        H  0.46681597  0.41028696  0.05454770     0.28390
H346        H  0.26458291  0.30431267  0.09764111     0.28390
H347        H  0.36435876  0.32935010  0.18882785     0.18980
H348        H  0.38007752  0.29744425  0.00827792     0.18980
C349        C  0.47645254  0.34099921  0.14761994    -0.06850
C350        C  0.45246915  0.29439622  0.13910601    -0.17970
C351        C  0.46468357  0.27535812  0.09999389     0.10350
C352        C  0.00771926  0.30049762  0.07960965    -0.06770
C353        C  0.03579514  0.34300283  0.10153913    -0.18010
C354        C  0.01918226  0.36575122  0.12705210     0.10380
S355        S  0.42109703  0.22252418  0.07536737    -0.32970
S356        S  0.05106430  0.42569950  0.11854582    -0.32980
H357        H  0.01657054  0.43450284  0.12082003     0.28390
H358        H  0.44280079  0.21687246  0.03456455     0.28390
H359        H  0.41946562  0.27491298  0.15444448     0.18980
H360        H  0.07044717  0.36158514  0.09509644     0.18980
C361        C  0.24764063  0.20889733  0.07040728    -0.06850
C362        C  0.27414421  0.19336361  0.09167039    -0.17970
C363        C  0.25852726  0.16202457  0.13183309     0.10350
C364        C  0.21375211  0.14093666  0.14740706    -0.06770
C365        C  0.18873736  0.15855482  0.12850094    -0.18010
C366        C  0.20620441  0.19341587  0.09310747     0.10380
S367        S  0.29689903  0.14934179  0.16147972    -0.32970
S368        S  0.17603394  0.21986891  0.07957807    -0.32980
H369        H  0.14657814  0.20182942  0.12079170     0.28390
H370        H  0.27298670  0.13244455  0.20703678     0.28390
H371        H  0.30694123  0.20529528  0.07706544     0.18980
H372        H  0.15417077  0.14284299  0.13748894     0.18980
C373        C  0.23226845  0.02231841  0.06769200    -0.06850
C374        C  0.20863585  0.04287366  0.05048819    -0.17970
C375        C  0.18931094  0.05911087  0.08309116     0.10350
C376        C  0.19966777  0.06350580  0.13539030    -0.06770
C377        C  0.22022293  0.04100755  0.15510299    -0.18010
C378        C  0.23264844  0.01708457  0.12216200     0.10380
S379        S  0.14900240  0.07089887  0.05560353    -0.32970
S380        S  0.24013702  0.47500885  0.15217093    -0.32980
H381        H  0.21934733  0.44440396  0.11179364     0.28390
H382        H  0.12222901  0.05896023  0.09915145     0.28390
H383        H  0.20053593  0.04401500  0.01159339     0.18980
H384        H  0.22473256  0.04039433  0.19621469     0.18980
C385        C  0.24598127  0.21588898  0.48538875    -0.06850
C386        C  0.20098611  0.19850201  0.47280171    -0.17970
C387        C  0.17567106  0.15615325  0.45057320     0.10350
C388        C  0.19745128  0.13589621  0.42750737    -0.06770
C389        C  0.24388752  0.15872624  0.43052918    -0.18010
C390        C  0.26686879  0.19394970  0.46501370     0.10380
S391        S  0.11731935  0.12776263  0.46359792    -0.32970
S392        S  0.31711327  0.19993376  0.49042094    -0.32980
H393        H  0.30907550  0.20621391  0.54144914     0.28390
H394        H  0.11257951  0.08568146  0.47116550     0.28390
H395        H  0.18384859  0.21395108  0.48918038     0.18980
H396        H  0.26122642  0.14341287  0.41434051     0.18980
C397        C  0.19469635  0.06287059  0.44038699    -0.06850
C398        C  0.19828620  0.06933175  0.49391837    -0.17970
C399        C  0.22633885  0.06124523  0.52416500     0.10350
C400        C  0.24525895  0.03709139  0.50418153    -0.06770
C401        C  0.24079529  0.02890051  0.45058602    -0.18010
C402        C  0.21908617  0.04478024  0.41832631     0.10380
S403        S  0.23982328  0.08669382  0.58706219    -0.32970
S404        S  0.22793048  0.04473101  0.35034796    -0.32980
H405        H  0.22487485  0.08245793  0.33921927     0.28390
H406        H  0.28185048  0.09122375  0.58965085     0.28390
H407        H  0.18286677  0.08591508  0.51179309     0.18980
H408        H  0.25510096  0.01106664  0.43331021     0.18980
C409        C  0.14054562  0.56825980  0.37828012    -0.00160
C410        C  0.17565589  0.58760503  0.41204565    -0.00160
C411        C  0.19053236  0.59368655  0.16717444    -0.00160
C412        C  0.15426567  0.57449232  0.19838352    -0.00160
O413        O  0.12416931  0.99063978  0.35082685    -0.73670
O414        O  0.03761988  0.90873540  0.22707973    -0.74650
O415        O  0.13912805  0.99939841  0.23286446    -0.63270
O416        O  0.03810918  0.91027027  0.33292146    -0.71680
O417        O  0.03475326  0.97125086  0.34055914    -0.71230
O418        O  0.08732560  0.50558519  0.19830503    -0.62480
O419        O  0.01401400  0.95396109  0.24022472    -0.74990
O420        O  0.12070253  0.53620177  0.30033040    -0.73770
Cu421      Cu  0.08810858  0.94912633  0.28461495     1.04560
Cu422      Cu  0.06388303  0.99348308  0.27036412     1.04330
C423        C  0.13033722  0.52962908  0.34341831     0.92530
C424        C  0.00613626  0.91779428  0.22233765     0.91670
C425        C  0.12788218  0.52258166  0.20424541     0.83820
C426        C  0.01930684  0.93002136  0.35189378     0.90090
C427        C  0.46007652  0.89287416  0.19648284    -0.00160
C428        C  0.44944501  0.86139829  0.15975352    -0.00160
C429        C  0.45856905  0.86831983  0.40545571    -0.00160
C430        C  0.47312722  0.90442167  0.37453501    -0.00160
C431        C  0.46676533  0.58178888  0.20085874    -0.00160
C432        C  0.44561905  0.59512290  0.16717840    -0.00160
C433        C  0.47115976  0.57191737  0.37834405    -0.00160
C434        C  0.44977006  0.58876371  0.40631151    -0.00160
O435        O  0.03582885  0.58460050  0.20189888    -0.73670
O436        O  0.07473843  0.56415055  0.34273448    -0.74650
O437        O  0.00909149  0.58273625  0.30530689    -0.63270
O438        O  0.09335552  0.56713060  0.24050445    -0.71680
O439        O  0.13704175  0.63694375  0.23012348    -0.71230
O440        O  0.05144009  0.63430775  0.35608868    -0.62480
O441        O  0.13392502  0.63065479  0.34038266    -0.74990
O442        O  0.04232910  0.64233390  0.23851216    -0.73770
Cu443      Cu  0.05202818  0.57297573  0.27292828     1.04560
Cu444      Cu  0.09419794  0.64227361  0.29024830     1.04330
C445        C  0.01890262  0.60821097  0.20836002     0.92530
C446        C  0.11511807  0.59048357  0.35678231     0.91670
C447        C  0.01316940  0.60005456  0.34735502     0.83820
C448        C  0.12901875  0.59639466  0.22305865     0.90090
O449        O  0.40910289  0.91809291  0.35254262    -0.73670
O450        O  0.40458749  0.00192312  0.23013578    -0.74650
O451        O  0.39931590  0.90352004  0.23383777    -0.63270
O452        O  0.40959479  0.00276956  0.33908356    -0.71680
O453        O  0.47445222  0.50865511  0.34525861    -0.71230
O454        O  0.45612007  0.95785674  0.19972771    -0.62480
O455        O  0.47359607  0.52881894  0.24397473    -0.74990
O456        O  0.45754890  0.92571446  0.30003931    -0.73770
Cu457      Cu  0.39908240  0.95288519  0.28793151     1.04560
Cu458      Cu  0.46739736  0.98080631  0.27272472     1.04330
C459        C  0.44277866  0.91440872  0.34302638     0.92530
C460        C  0.44495365  0.53498249  0.22543007     0.91670
C461        C  0.43311208  0.91667396  0.20400904     0.83820
C462        C  0.44890752  0.52351410  0.35759915     0.90090
C463        C  0.08944873  0.65065613  0.86092754    -0.00160
C464        C  0.11276355  0.68602847  0.89421447    -0.00160
C465        C  0.08259217  0.96052021  0.87920776    -0.00160
C466        C  0.10624798  0.94394073  0.90402042    -0.00160
C467        C  0.40102335  0.95419164  0.85643925    -0.00160
C468        C  0.37448978  0.93969838  0.89851083    -0.00160
C469        C  0.09543487  0.94787389  0.70941218    -0.00160
C470        C  0.10652853  0.92686378  0.67343259    -0.00160
O471        O  0.14993470  0.52988491  0.73237064    -0.73670
O472        O  0.14697426  0.62981155  0.82986320    -0.74650
O473        O  0.14332547  0.53503833  0.84001514    -0.63270
O474        O  0.14950161  0.62454984  0.72328662    -0.71680
O475        O  0.08022145  0.57479131  0.70894447    -0.71230
O476        O  0.07435997  0.50990646  0.82637206    -0.62480
O477        O  0.07762661  0.58299261  0.82214903    -0.74990
O478        O  0.08094888  0.50553871  0.71459211    -0.73770
Cu479      Cu  0.15185351  0.58188652  0.78099316     1.04560
Cu480      Cu  0.07753417  0.54297934  0.76819431     1.04330
C481        C  0.11265783  0.49859964  0.71369293     0.92530
C482        C  0.10719708  0.62079310  0.83780593     0.91670
C483        C  0.10296322  0.50517878  0.84925558     0.83820
C484        C  0.11119532  0.61387502  0.70447504     0.90090
C485        C  0.09334755  0.64372417  0.68957310    -0.00160
C486        C  0.11290782  0.67600308  0.65345016    -0.00160
C487        C  0.43189398  0.96239399  0.68621118    -0.00160
C488        C  0.39655397  0.94811408  0.65285225    -0.00160
O489        O  0.02127314  0.58950504  0.87048787    -0.73670
O490        O  0.48825583  0.51983514  0.74025407    -0.74650
O491        O  0.05167580  0.61095368  0.76116464    -0.63270
O492        O  0.46973493  0.51492269  0.84709970    -0.71680
O493        O  0.42073135  0.53194818  0.82293324    -0.71230
O494        O  0.51238670  0.62230046  0.70824878    -0.62480
O495        O  0.43385397  0.53033600  0.71964222    -0.74990
O496        O  0.51590505  0.63594670  0.82279933    -0.73770
Cu497      Cu  0.50844743  0.55862138  0.80390517     1.04560
Cu498      Cu  0.46730596  0.58304951  0.76949624     1.04330
C499        C  0.03875495  0.62821390  0.85658152     0.92530
C500        C  0.45223934  0.50693782  0.71527726     0.91670
C501        C  0.05010765  0.62768483  0.71977166     0.83820
C502        C  0.43008674  0.50382990  0.84391967     0.90090
O503        O  0.05364469  0.94687053  0.77608467    -0.73670
O504        O  0.44852202  0.95302166  0.79639741    -0.74650
O505        O  0.01104871  0.95325897  0.86564743    -0.63270
O506        O  0.49326969  0.95534886  0.71074445    -0.71680
O507        O  0.43021289  0.89589654  0.72411301    -0.71230
O508        O  0.51127079  0.89415925  0.84622633    -0.62480
O509        O  0.42177710  0.89320243  0.83947618    -0.74990
O510        O  0.51414535  0.88929953  0.73047968    -0.73770
Cu511      Cu  0.50308294  0.95473652  0.78729931     1.04560
Cu512      Cu  0.46575813  0.88635834  0.78534189     1.04330
C513        C  0.05249156  0.92360728  0.74005594     0.92530
C514        C  0.42200453  0.92959190  0.82996817     0.91670
C515        C  0.03078312  0.93181497  0.87079186     0.83820
C516        C  0.45220517  0.93393485  0.70136061     0.90090
C517        C  0.30139254  0.78065628  0.02543906    -0.00160
C518        C  0.26215688  0.74094273  0.02490171    -0.00160
C519        C  0.02499412  0.78704227  0.03465772    -0.00160
C520        C  0.02982854  0.75057972  0.03531951    -0.00160
C521        C  0.25168397  0.50430150  0.02775649    -0.00160
C522        C  0.28839080  0.49989620  0.03705688    -0.00160
C523        C  0.26108172  0.51429225  0.54160241    -0.00160
C524        C  0.29893468  0.51139497  0.53693209    -0.00160
C525        C  0.01871297  0.78340898  0.53259119    -0.00160
C526        C  0.02577539  0.74784369  0.53480636    -0.00160
C527        C  0.26442343  0.74887117  0.52927633    -0.00160
C528        C  0.30450968  0.78769058  0.52812880    -0.00160
C529        C  0.32157343  0.82584258  0.56664796    -0.06850
C530        C  0.34271304  0.86831201  0.54391918    -0.17970
C531        C  0.37462528  0.90590538  0.57017572     0.10350
C532        C  0.37758072  0.90498590  0.62388045    -0.06770
C533        C  0.35311747  0.86365088  0.64866039    -0.18010
C534        C  0.32896661  0.82374222  0.62018585     0.10380
S535        S  0.41357126  0.95399040  0.53408921    -0.32970
S536        S  0.31264015  0.77291344  0.65422033    -0.32980
H537        H  0.31972244  0.75167156  0.61289394     0.28390
H538        H  0.40399766  0.93285778  0.48573766     0.28390
H539        H  0.33873330  0.87100721  0.50309809     0.18980
H540        H  0.35366690  0.86219523  0.69010330     0.18980
C541        C  0.37318413  0.97350625  0.63973708    -0.06850
C542        C  0.32668495  0.94820093  0.63975653    -0.17970
C543        C  0.30054939  0.95853511  0.60806006     0.10350
C544        C  0.32017374  0.99968871  0.58135898    -0.06770
C545        C  0.36610715  0.02877712  0.58937908    -0.18010
C546        C  0.39301669  0.01528670  0.61442970     0.10380
S547        S  0.24537644  0.91364872  0.59506356    -0.32970
S548        S  0.45188791  0.05120553  0.60601852    -0.32980
H549        H  0.46414044  0.01894925  0.60962707     0.28390
H550        H  0.23939427  0.89156929  0.64210778     0.28390
H551        H  0.31105682  0.91610554  0.65849312     0.18980
H552        H  0.38223805  0.56054480  0.56991082     0.18980
C553        C  0.15948104  0.69350593  0.63710001    -0.06850
C554        C  0.18564130  0.74028550  0.63380702    -0.17970
C555        C  0.21823839  0.75977381  0.59677885     0.10350
C556        C  0.23468217  0.73441547  0.57457081    -0.06770
C557        C  0.21511270  0.68918706  0.58820651    -0.18010
C558        C  0.17428998  0.66752516  0.61213498     0.10380
S559        S  0.22815831  0.81187891  0.57146074    -0.32970
S560        S  0.14022720  0.60881503  0.59762159    -0.32980
H561        H  0.10055401  0.60899440  0.59256014     0.28390
H562        H  0.22788194  0.80006554  0.51992993     0.28390
H563        H  0.17418154  0.76067733  0.65135063     0.18980
H564        H  0.22680274  0.66893329  0.57087783     0.18980
C565        C  0.05861855  0.74420480  0.56905661    -0.06850
C566        C  0.05312186  0.73835827  0.62239099    -0.17970
C567        C  0.07293705  0.71968208  0.65138534     0.10350
C568        C  0.09104143  0.69731628  0.62631386    -0.06770
C569        C  0.09777834  0.70372295  0.57306078    -0.18010
C570        C  0.08653364  0.73104673  0.54613261     0.10380
S571        S  0.07707076  0.72933802  0.71925553    -0.32970
S572        S  0.10826359  0.74724179  0.48235517    -0.32980
H573        H  0.10213461  0.78400601  0.48004035     0.28390
H574        H  0.11700328  0.73003919  0.72661832     0.28390
H575        H  0.03161764  0.74503747  0.64279785     0.18980
H576        H  0.11520128  0.69026017  0.55292743     0.18980
C577        C  0.22618468  0.98745045  0.58022515    -0.06850
C578        C  0.23025499  0.49869915  0.63295059    -0.17970
C579        C  0.19319489  0.97816468  0.66586230     0.10350
C580        C  0.15078042  0.94681034  0.64539312    -0.06770
C581        C  0.15069757  0.93035280  0.59578388    -0.18010
C582        C  0.18567493  0.95140492  0.56257373     0.10380
S583        S  0.20397251  0.48782042  0.73378301    -0.32970
S584        S  0.17559895  0.92822516  0.49829354    -0.32980
H585        H  0.21939456  0.94323742  0.48600534     0.28390
H586        H  0.16811195  0.44658631  0.74892365     0.28390
H587        H  0.26205196  0.52390154  0.64827910     0.18980
H588        H  0.12322926  0.90013603  0.58092936     0.18980
C589        C  0.02857670  0.81776905  0.57566061    -0.06850
C590        C  0.03637830  0.86073791  0.56415806    -0.17970
C591        C  0.05344011  0.89510363  0.60011786     0.10350
C592        C  0.06832008  0.88796765  0.64732137    -0.06770
C593        C  0.05064777  0.84371466  0.66347026    -0.18010
C594        C  0.02402079  0.80876680  0.62886501     0.10380
S595        S  0.06629459  0.94975601  0.57929434    -0.32970
S596        S  0.97260302  0.76413850  0.65356209    -0.32980
H597        H  0.94983115  0.75416316  0.60632737     0.28390
H598        H  0.05328094  0.95986610  0.62563258     0.28390
H599        H  0.03001035  0.86931211  0.52761895     0.18980
H600        H  0.05418467  0.83672587  0.70314776     0.18980
C601        C  0.36377884  0.89755536  0.92664998    -0.06850
C602        C  0.34081017  0.85513976  0.90309698    -0.17970
C603        C  0.32175168  0.81584596  0.93288164     0.10350
C604        C  0.31718852  0.81864557  0.98689244    -0.06770
C605        C  0.33799790  0.86165991  0.00884824    -0.18010
C606        C  0.36563748  0.89928050  0.98068401     0.10380
S607        S  0.30753142  0.76485252  0.89995073    -0.32970
S608        S  0.40353774  0.94887848  0.01591503    -0.32980
H609        H  0.43816155  0.95955107  0.98173275     0.28390
H610        H  0.31860104  0.74662923  0.94147960     0.28390
H611        H  0.33848635  0.85248994  0.86165632     0.18980
H612        H  0.33701976  0.86583196  0.04987722     0.18980
C613        C  0.35104511  0.96243009  0.92041654    -0.06850
C614        C  0.30680758  0.93250311  0.93380661    -0.17970
C615        C  0.28749822  0.94083143  0.97545223     0.10350
C616        C  0.30614074  0.98526769  0.99378463    -0.06770
C617        C  0.34638751  0.51787560  0.97310145    -0.18010
C618        C  0.37088899  0.50665158  0.94094065     0.10380
S619        S  0.24657071  0.89112360  0.00823876    -0.32970
S620        S  0.42779487  0.54984578  0.93632531    -0.32980
H621        H  0.44471561  0.52159726  0.94336475     0.28390
H622        H  0.23793529  0.91287530  0.04749407     0.28390
H623        H  0.29040168  0.89871905  0.91884370     0.18980
H624        H  0.36148124  0.55179742  0.98741539     0.18980
C625        C  0.04691233  0.82183347  0.99375665    -0.06850
C626        C  0.08800283  0.85914299  0.00568524    -0.17970
C627        C  0.09821525  0.90016524  0.98539064     0.10350
C628        C  0.08203388  0.90183593  0.93610047    -0.06770
C629        C  0.04902536  0.86059090  0.91559515    -0.18010
C630        C  0.02610337  0.82342957  0.94750383     0.10380
S631        S  0.12819548  0.94793572  0.02613674    -0.32970
S632        S  0.97078103  0.78253020  0.92731698    -0.32980
H633        H  0.96421160  0.74967603  0.96224188     0.28390
H634        H  0.11425265  0.97421961  0.00066545     0.28390
H635        H  0.10784498  0.85818693  0.03703521     0.18980
H636        H  0.04136815  0.85617143  0.87532339     0.18980
C637        C  0.15686225  0.96573316  0.90607655    -0.06850
C638        C  0.18696895  0.51144543  0.91714020    -0.17970
C639        C  0.22796024  0.52464420  0.94202177     0.10350
C640        C  0.22993991  0.99288422  0.97388722    -0.06770
C641        C  0.20346929  0.94858087  0.95711005    -0.18010
C642        C  0.17412703  0.93754371  0.91549328     0.10380
S643        S  0.27044519  0.58262467  0.94386768    -0.32970
S644        S  0.15166079  0.88330078  0.88610370    -0.32980
H645        H  0.13059077  0.89217287  0.84552761     0.28390
H646        H  0.30261795  0.57579566  0.96732897     0.28390
H647        H  0.17790275  0.53640393  0.91394357     0.18980
H648        H  0.19999817  0.92168465  0.97949698     0.18980
C649        C  0.23026095  0.72855951  0.98082451    -0.06850
C650        C  0.22012002  0.75958882  0.96022910    -0.17850
C651        C  0.18832148  0.74737205  0.92141515     0.10350
C652        C  0.15942122  0.70165454  0.91012518    -0.06770
C653        C  0.16976784  0.67078105  0.93061053    -0.18010
C654        C  0.20725395  0.68462567  0.96125107     0.10380
S655        S  0.18216724  0.79087114  0.89259184    -0.32970
S656        S  0.22388161  0.64464256  0.97371264    -0.32980
H657        H  0.26902966  0.67590094  0.98045234     0.28390
H658        H  0.16095542  0.76632402  0.84784390     0.28390
H659        H  0.23617997  0.79336262  0.97475058     0.18980
H660        H  0.14766975  0.63537693  0.92542680     0.18980
C661        C  0.05620830  0.74377322  0.99503606    -0.06850
C662        C  0.04419906  0.73692146  0.94289823    -0.17970
C663        C  0.06456133  0.72206611  0.90849409     0.10350
C664        C  0.09052330  0.70472214  0.92761371    -0.06770
C665        C  0.10168332  0.71149138  0.98049801    -0.18010
C666        C  0.08879848  0.73531204  0.01182510     0.10380
S667        S  0.06198756  0.73183090  0.84143433    -0.32970
S668        S  0.11492251  0.75716925  0.07285855    -0.32980
H669        H  0.12271345  0.80007155  0.06229710     0.28390
H670        H  0.04119094  0.75699321  0.84582277     0.28390
H671        H  0.01953987  0.74342377  0.92849165     0.18980
H672        H  0.12290230  0.70070356  0.99658343     0.18980
C673        C  0.00303271  0.70852142  0.49831828    -0.06850
C674        C  0.01009783  0.71262714  0.44475679    -0.17970
C675        C  0.99449571  0.67476423  0.41268835     0.10350
C676        C  0.47520806  0.63198057  0.43513718    -0.06770
C677        C  0.47014316  0.62857367  0.48861122    -0.18010
C678        C  0.48037671  0.66526572  0.51914916     0.10380
S679        S  0.99661692  0.68164836  0.34384607    -0.32970
S680        S  0.46119293  0.65435941  0.58427929    -0.32980
H681        H  0.45208688  0.68899817  0.58571954     0.28390
H682        H  0.01216168  0.72762158  0.34395558     0.28390
H683        H  0.02847179  0.74531654  0.42793319     0.18980
H684        H  0.45385147  0.59599347  0.50627776     0.18980
C685        C  0.32668144  0.52492567  0.48878378    -0.06850
C686        C  0.34311038  0.56717127  0.46704478    -0.17970
C687        C  0.37686956  0.58341750  0.43053765     0.10350
C688        C  0.40148964  0.56180753  0.42260809    -0.06770
C689        C  0.38342371  0.51857094  0.44238806    -0.18010
C690        C  0.34419862  0.49880183  0.47058528     0.10380
S691        S  0.38748760  0.63236209  0.39585759    -0.32970
S692        S  0.31835757  0.94010061  0.48281271    -0.32980
H693        H  0.27593881  0.93297056  0.48904295     0.28390
H694        H  0.40190985  0.62049214  0.35172880     0.28390
H695        H  0.33024965  0.58806749  0.47871372     0.18980
H696        H  0.40021325  0.50019291  0.43781645     0.18980
C697        C  0.39801258  0.56627572  0.14826553    -0.06850
C698        C  0.38245777  0.52266174  0.13117850    -0.17970
C699        C  0.34277824  0.49845881  0.10320838     0.10350
C700        C  0.32082588  0.51999228  0.08269659    -0.06770
C701        C  0.33590050  0.56370542  0.10056676    -0.18010
C702        C  0.37185519  0.58526013  0.13564109     0.10380
S703        S  0.32051619  0.93950111  0.09668732    -0.32970
S704        S  0.38398857  0.63765679  0.16282983    -0.32980
H705        H  0.40289410  0.63304599  0.20853639     0.28390
H706        H  0.34954282  0.93578846  0.13106999     0.28390
H707        H  0.40253785  0.50779784  0.13692455     0.18980
H708        H  0.32017725  0.58155934  0.08688605     0.18980
C709        C  0.47258076  0.63615756  0.13665731    -0.06850
C710        C  0.49214790  0.67854159  0.15926046    -0.17970
C711        C  0.51305235  0.71727727  0.12922585     0.10350
C712        C  0.00948968  0.71332999  0.07434487    -0.06770
C713        C  0.98984495  0.67011333  0.05307294    -0.18010
C714        C  0.97532174  0.63271292  0.08348280     0.10380
S715        S  0.54602211  0.76810998  0.16531863    -0.32970
S716        S  0.96435111  0.58184184  0.05297024    -0.32980
H717        H  0.97855657  0.56648943  0.09461136     0.28390
H718        H  0.57320637  0.79346592  0.12521720     0.28390
H719        H  0.49190715  0.68137712  0.20066697     0.18980
H720        H  0.98820274  0.66538820  0.01183340     0.18980
C721        C  0.41597372  0.85063929  0.43287722    -0.06850
C722        C  0.37475691  0.82911663  0.40732771    -0.17970
C723        C  0.33564202  0.80654291  0.43578744     0.10350
C724        C  0.33843898  0.79702366  0.48838018    -0.06770
C725        C  0.38028698  0.81174439  0.50994260    -0.18010
C726        C  0.41698417  0.84486362  0.48595358     0.10380
S727        S  0.28524442  0.79458219  0.40375297    -0.32970
S728        S  0.46209353  0.88295859  0.52604526    -0.32980
H729        H  0.47463530  0.91961924  0.49366632     0.28390
H730        H  0.26740082  0.80387088  0.44652284     0.28390
H731        H  0.37287742  0.83162190  0.36609508     0.18980
H732        H  0.38345273  0.80578388  0.55020840     0.18980
C733        C  0.48231738  0.84288909  0.41712931    -0.06850
C734        C  0.45386237  0.79647455  0.42504359    -0.17970
C735        C  0.46454820  0.77426645  0.46180684     0.10350
C736        C  0.00773281  0.79468949  0.48103406    -0.06770
C737        C  0.04019254  0.83305837  0.45615423    -0.18010
C738        C  0.02765420  0.86105244  0.43198727     0.10380
S739        S  0.42130865  0.72369120  0.48867863    -0.32970
S740        S  0.06843373  0.91951377  0.43954683    -0.32980
H741        H  0.03835479  0.93264705  0.45309267     0.28390
H742        H  0.41219644  0.74724655  0.52553861     0.28390
H743        H  0.42002444  0.77995972  0.41113757     0.18980
H744        H  0.07414587  0.84737318  0.46916778     0.18980
C745        C  0.40977327  0.84489750  0.12629970    -0.06850
C746        C  0.36784067  0.82557389  0.14827057    -0.17970
C747        C  0.33009653  0.80295852  0.11737745     0.10350
C748        C  0.33446933  0.79130030  0.06650097    -0.06770
C749        C  0.37635247  0.80474471  0.04778256    -0.18010
C750        C  0.41291204  0.83722165  0.07357319     0.10380
S751        S  0.27950587  0.79497096  0.14354710    -0.32970
S752        S  0.46115286  0.87002217  0.03546136    -0.32980
H753        H  0.46681969  0.91029090  0.05454809     0.28390
H754        H  0.26459308  0.80431753  0.09764059     0.28390
H755        H  0.36436478  0.82935196  0.18882597     0.18980
H756        H  0.38008368  0.79744268  0.00827752     0.18980
C757        C  0.47645765  0.84100267  0.14761682    -0.06850
C758        C  0.45247349  0.79439949  0.13910499    -0.17970
C759        C  0.46468367  0.77536030  0.09998992     0.10350
C760        C  0.00771730  0.80049876  0.07959978    -0.06770
C761        C  0.03579519  0.84300545  0.10152521    -0.18010
C762        C  0.01918557  0.86575413  0.12704421     0.10380
S763        S  0.42109487  0.72252535  0.07536876    -0.32970
S764        S  0.05106909  0.92570280  0.11854166    -0.32980
H765        H  0.01657619  0.93450730  0.12081776     0.28390
H766        H  0.44279097  0.71688339  0.03455022     0.28390
H767        H  0.41947139  0.77491691  0.15444751     0.18980
H768        H  0.07044633  0.86158816  0.09507721     0.18980
C769        C  0.24764606  0.70889522  0.07040624    -0.06850
C770        C  0.27414648  0.69335861  0.09167100    -0.17970
C771        C  0.25852616  0.66202028  0.13183457     0.10350
C772        C  0.21375064  0.64093563  0.14740674    -0.06770
C773        C  0.18874009  0.65855860  0.12850043    -0.18010
C774        C  0.20621157  0.69341988  0.09310698     0.10380
S775        S  0.29689376  0.64933394  0.16148529    -0.32970
S776        S  0.17605199  0.71988469  0.07958056    -0.32980
H777        H  0.14661594  0.70186724  0.12081499     0.28390
H778        H  0.27297854  0.63243731  0.20704066     0.28390
H779        H  0.30694353  0.70528806  0.07706740     0.18980
H780        H  0.15417377  0.64285129  0.13748835     0.18980
C781        C  0.23226675  0.52232044  0.06768758    -0.06850
C782        C  0.20864138  0.54288300  0.05048276    -0.17970
C783        C  0.18931216  0.55911590  0.08308539     0.10350
C784        C  0.19966182  0.56350347  0.13538623    -0.06770
C785        C  0.22021304  0.54100131  0.15509885    -0.18010
C786        C  0.23264006  0.51708020  0.12215690     0.10380
S787        S  0.14900745  0.57090818  0.05559515    -0.32970
S788        S  0.24014946  0.97501707  0.15217975    -0.32980
H789        H  0.21936075  0.94440933  0.11180486     0.28390
H790        H  0.12223109  0.55896805  0.09914071     0.28390
H791        H  0.20055116  0.54403441  0.01158656     0.18980
H792        H  0.22471883  0.54038400  0.19621077     0.18980
C793        C  0.24598348  0.71589043  0.48538601    -0.06850
C794        C  0.20098841  0.69850453  0.47279934    -0.17970
C795        C  0.17567240  0.65615603  0.45057045     0.10350
C796        C  0.19745156  0.63589812  0.42750413    -0.06770
C797        C  0.24388782  0.65872726  0.43052542    -0.18010
C798        C  0.26687004  0.69395049  0.46501004     0.10380
S799        S  0.11732080  0.62776667  0.46359544    -0.32970
S800        S  0.31711457  0.69993359  0.49041579    -0.32980
H801        H  0.30907835  0.70621475  0.54144428     0.28390
H802        H  0.11257998  0.58568514  0.47116344     0.28390
H803        H  0.18385162  0.71395416  0.48917855     0.18980
H804        H  0.26122594  0.64341327  0.41433623     0.18980
C805        C  0.19469504  0.56287193  0.44038476    -0.06850
C806        C  0.19828458  0.56933303  0.49391615    -0.17970
C807        C  0.22633665  0.56124598  0.52416326     0.10350
C808        C  0.24525704  0.53709236  0.50417995    -0.06770
C809        C  0.24079395  0.52890185  0.45058436    -0.18010
C810        C  0.21908486  0.54478145  0.41832441     0.10380
S811        S  0.23981965  0.58669318  0.58706121    -0.32970
S812        S  0.22792872  0.54473144  0.35034604    -0.32980
H813        H  0.22487267  0.58245798  0.33921657     0.28390
H814        H  0.28184691  0.59122332  0.58965076     0.28390
H815        H  0.18286517  0.58591649  0.51179056     0.18980
H816        H  0.25509976  0.51106804  0.43330873     0.18980
C817        C  0.64054685  0.06825820  0.37828224    -0.00160
C818        C  0.67565667  0.08760337  0.41204828    -0.00160
C819        C  0.69053765  0.09368876  0.16717759    -0.00160
C820        C  0.65427099  0.07449409  0.19838668    -0.00160
O821        O  0.62416735  0.49064067  0.35082655    -0.73670
O822        O  0.53761512  0.40873301  0.22708302    -0.74650
O823        O  0.63912321  0.49939722  0.23286338    -0.63270
O824        O  0.53810705  0.41027039  0.33292489    -0.71680
O825        O  0.53475016  0.47125055  0.34056051    -0.71230
O826        O  0.58733113  0.00558706  0.19830524    -0.62480
O827        O  0.51400932  0.45395892  0.24022623    -0.74990
O828        O  0.62070653  0.03620237  0.30033135    -0.73770
Cu829      Cu  0.58810514  0.44912574  0.28461623     1.04560
Cu830      Cu  0.56387871  0.49348181  0.27036456     1.04330
C831        C  0.63033974  0.02962850  0.34341942     0.92530
C832        C  0.50613136  0.41779161  0.22234045     0.91670
C833        C  0.62788756  0.02258343  0.20424688     0.83820
C834        C  0.51930437  0.43002139  0.35189651     0.90090
C835        C  0.96007124  0.39287070  0.19648622    -0.00160
C836        C  0.94943952  0.36139453  0.15975690    -0.00160
C837        C  0.95856654  0.36831982  0.40545899    -0.00160
C838        C  0.97312477  0.40442167  0.37453828    -0.00160
C839        C  0.96677124  0.08179237  0.20085820    -0.00160
C840        C  0.94562620  0.09512705  0.16717680    -0.00160
C841        C  0.97116212  0.07191737  0.37834401    -0.00160
C842        C  0.94977172  0.08876301  0.40631148    -0.00160
O843        O  0.53583442  0.08460344  0.20189943    -0.73670
O844        O  0.57474046  0.06414972  0.34273507    -0.74650
O845        O  0.50909489  0.08273769  0.30530720    -0.63270
O846        O  0.59335940  0.06713149  0.24050550    -0.71680
O847        O  0.63704653  0.13694494  0.23012715    -0.71230
O848        O  0.55144301  0.13430782  0.35609066    -0.62480
O849        O  0.63392732  0.13065395  0.34038577    -0.74990
O850        O  0.54233444  0.14233626  0.23851399    -0.73770
Cu851      Cu  0.55203183  0.07297680  0.27292887     1.04560
Cu852      Cu  0.59420184  0.14227433  0.29025106     1.04330
C853        C  0.51890838  0.10821401  0.20836084     0.92530
C854        C  0.61511981  0.09048234  0.35678420     0.91670
C855        C  0.51317227  0.10005510  0.34735583     0.83820
C856        C  0.62902332  0.09639584  0.22306136     0.90090
O857        O  0.90910013  0.41809237  0.35254627    -0.73670
O858        O  0.90458245  0.50191999  0.23013811    -0.74650
O859        O  0.89931118  0.40351711  0.23384197    -0.63270
O860        O  0.90959175  0.50276875  0.33908556    -0.71680
O861        O  0.97445517  0.00865580  0.34525741    -0.71230
O862        O  0.95611452  0.45785324  0.19972997    -0.62480
O863        O  0.97360079  0.02882148  0.24397374    -0.74990
O864        O  0.95754541  0.42571304  0.30004229    -0.73770
Cu865      Cu  0.89907849  0.45288330  0.28793473     1.04560
Cu866      Cu  0.96739318  0.48080427  0.27272652     1.04330
C867        C  0.94277581  0.41440811  0.34302972     0.92530
C868        C  0.94495881  0.03498555  0.22542875     0.91670
C869        C  0.93310679  0.41667052  0.20401243     0.83820
C870        C  0.94891025  0.02351451  0.35759800     0.90090
C871        C  0.58944560  0.15065674  0.86092705    -0.00160
C872        C  0.61276201  0.18603221  0.89420978    -0.00160
C873        C  0.58258916  0.46052120  0.87920543    -0.00160
C874        C  0.60624387  0.44394180  0.90401984    -0.00160
C875        C  0.90102282  0.45419358  0.85643750    -0.00160
C876        C  0.87448888  0.43970083  0.89850892    -0.00160
C877        C  0.59543296  0.44787317  0.70941067    -0.00160
C878        C  0.60652687  0.42686258  0.67343212    -0.00160
O879        O  0.64993538  0.02988587  0.73237293    -0.73670
O880        O  0.64697156  0.12981171  0.82986410    -0.74650
O881        O  0.64332706  0.03503936  0.84001802    -0.63270
O882        O  0.64949896  0.12454865  0.72328785    -0.71680
O883        O  0.58021835  0.07478965  0.70894860    -0.71230
O884        O  0.57436125  0.00990563  0.82637567    -0.62480
O885        O  0.57762402  0.08299131  0.82215244    -0.74990
O886        O  0.58094925  0.00553841  0.71459534    -0.73770
Cu887      Cu  0.65185263  0.08188685  0.78099517     1.04560
Cu888      Cu  0.57753321  0.04297823  0.76819802     1.04330
C889        C  0.61265877  0.99860019  0.71369525     0.92530
C890        C  0.60719420  0.12079282  0.83780731     0.91670
C891        C  0.60296517  0.00517863  0.84925865     0.83820
C892        C  0.61119219  0.11387324  0.70447725     0.90090
C893        C  0.59334423  0.14372208  0.68957431    -0.00160
C894        C  0.61290490  0.17600180  0.65345219    -0.00160
C895        C  0.93189241  0.46239487  0.68620890    -0.00160
C896        C  0.89655152  0.44811499  0.65285130    -0.00160
O897        O  0.52127093  0.08950530  0.87049091    -0.73670
O898        O  0.98825572  0.01983494  0.74025712    -0.74650
O899        O  0.55167422  0.11095429  0.76116764    -0.63270
O900        O  0.96973416  0.01492258  0.84710245    -0.71680
O901        O  0.92072884  0.03194519  0.82293474    -0.71230
O902        O  0.01238327  0.12229706  0.70825015    -0.62480
O903        O  0.93385233  0.03033316  0.71964439    -0.74990
O904        O  0.01590066  0.13594459  0.82280057    -0.73770
Cu905      Cu  0.00844610  0.05862152  0.80390810     1.04560
Cu906      Cu  0.96730282  0.08304667  0.76949779     1.04330
C907        C  0.53875168  0.12821367  0.85658314     0.92530
C908        C  0.95223922  0.00693643  0.71527987     0.91670
C909        C  0.55010485  0.12768327  0.71977351     0.83820
C910        C  0.93008559  0.00382803  0.84392140     0.90090
O911        O  0.55364193  0.44687114  0.77608158    -0.73670
O912        O  0.94851839  0.45302133  0.79639314    -0.74650
O913        O  0.51104616  0.45326038  0.86564343    -0.63270
O914        O  0.99326757  0.45534837  0.71074051    -0.71680
O915        O  0.93021066  0.39589674  0.72411018    -0.71230
O916        O  0.01126840  0.39416015  0.84622426    -0.62480
O917        O  0.92177521  0.39320347  0.83947418    -0.74990
O918        O  0.01414315  0.38929908  0.73047795    -0.73770
Cu919      Cu  0.00308020  0.45473690  0.78729549     1.04560
Cu920      Cu  0.96575585  0.38635870  0.78533969     1.04330
C921        C  0.55248920  0.42360720  0.74005386     0.92530
C922        C  0.92200221  0.42959259  0.82996546     0.91670
C923        C  0.53078038  0.43181626  0.87078898     0.83820
C924        C  0.95220302  0.43393488  0.70135730     0.90090
C925        C  0.80138661  0.28065911  0.02543960    -0.00160
C926        C  0.76215013  0.24094582  0.02490316    -0.00160
C927        C  0.52499813  0.28704677  0.03466487    -0.00160
C928        C  0.52983763  0.25058727  0.03532188    -0.00160
C929        C  0.75168636  0.00430061  0.02775978    -0.00160
C930        C  0.78839380  0.99989604  0.03705949    -0.00160
C931        C  0.76108406  0.01429157  0.54160380    -0.00160
C932        C  0.79893681  0.01139388  0.53693282    -0.00160
C933        C  0.51870885  0.28340648  0.53259365    -0.00160
C934        C  0.52577052  0.24784082  0.53480860    -0.00160
C935        C  0.76442047  0.24887024  0.52927857    -0.00160
C936        C  0.80450638  0.28768996  0.52813064    -0.00160
C937        C  0.82156953  0.32584231  0.56664913    -0.06850
C938        C  0.84270825  0.36831143  0.54391962    -0.17970
C939        C  0.87462070  0.40590526  0.57017533     0.10350
C940        C  0.87757718  0.40498643  0.62388003    -0.06770
C941        C  0.85311434  0.36365175  0.64866076    -0.18010
C942        C  0.82896334  0.32374271  0.62018698     0.10380
S943        S  0.91356588  0.45398992  0.53408776    -0.32970
S944        S  0.81263756  0.27291446  0.65422231    -0.32980
H945        H  0.81972018  0.25167242  0.61289639     0.28390
H946        H  0.90399188  0.43285659  0.48573661     0.28390
H947        H  0.83872785  0.37100598  0.50309853     0.18980
H948        H  0.85366430  0.36219665  0.69010368     0.18980
C949        C  0.87318189  0.47350747  0.63973672    -0.06850
C950        C  0.82668266  0.44820235  0.63975645    -0.17970
C951        C  0.80054715  0.45853627  0.60805950     0.10350
C952        C  0.82017155  0.49968986  0.58135842    -0.06770
C953        C  0.86610499  0.52877831  0.58937859    -0.18010
C954        C  0.89301450  0.51528773  0.61442896     0.10380
S955        S  0.74537438  0.41364960  0.59506226    -0.32970
S956        S  0.95188564  0.55120579  0.60601645    -0.32980
H957        H  0.96413755  0.51894899  0.60962384     0.28390
H958        H  0.73939197  0.39156998  0.64210638     0.28390
H959        H  0.81105447  0.41610707  0.65849329     0.18980
H960        H  0.88224011  0.06054352  0.56991127     0.18980
C961        C  0.65947825  0.19350471  0.63710251    -0.06850
C962        C  0.68563850  0.24028430  0.63380985    -0.17970
C963        C  0.71823522  0.25977270  0.59678124     0.10350
C964        C  0.73467918  0.23441452  0.57457307    -0.06770
C965        C  0.71511014  0.18918621  0.58820911    -0.18010
C966        C  0.67428740  0.16752410  0.61213750     0.10380
S967        S  0.72815414  0.31187743  0.57146291    -0.32970
S968        S  0.64022497  0.10881394  0.59762402    -0.32980
H969        H  0.60055176  0.10899320  0.59256199     0.28390
H970        H  0.72787945  0.30006474  0.51993216     0.28390
H971        H  0.67417864  0.26067597  0.65135367     0.18980
H972        H  0.72680043  0.16893256  0.57088067     0.18980
C973        C  0.55861250  0.24420156  0.56905995    -0.06850
C974        C  0.55311100  0.23834945  0.62239322    -0.17970
C975        C  0.57292928  0.21967649  0.65138763     0.10350
C976        C  0.59103863  0.19731544  0.62631606    -0.06770
C977        C  0.59777793  0.20372547  0.57306352    -0.18010
C978        C  0.58653165  0.23104857  0.54613646     0.10380
S979        S  0.57706176  0.22933223  0.71925763    -0.32970
S980        S  0.60826369  0.24724805  0.48236047    -0.32980
H981        H  0.60213164  0.28401038  0.48004743     0.28390
H982        H  0.61699568  0.23003627  0.72662083     0.28390
H983        H  0.53159953  0.24501977  0.64279755     0.18980
H984        H  0.61520348  0.19026573  0.55292991     0.18980
C985        C  0.72618207  0.48745073  0.58022332    -0.06850
C986        C  0.73025738  0.99870008  0.63295217    -0.17970
C987        C  0.69319265  0.47816314  0.66586087     0.10350
C988        C  0.65077795  0.44680999  0.64539128    -0.06770
C989        C  0.65069404  0.43035464  0.59578041    -0.18010
C990        C  0.68567199  0.45140624  0.56257106     0.10380
S991        S  0.70397462  0.98782367  0.73378435    -0.32970
S992        S  0.67559609  0.42822746  0.49829039    -0.32980
H993        H  0.71939157  0.44323830  0.48600311     0.28390
H994        H  0.66811441  0.94658963  0.74892578     0.28390
H995        H  0.76205420  0.02390314  0.64828032     0.18980
H996        H  0.62322457  0.40013985  0.58092382     0.18980
C997        C  0.52857271  0.31776584  0.57566390    -0.06850
C998        C  0.53636961  0.36073318  0.56416282    -0.17970
C999        C  0.55343385  0.39509947  0.60012198     0.10350
C1000       C  0.56831876  0.38796496  0.64732294    -0.06770
C1001       C  0.55065079  0.34371253  0.66347154    -0.18010
C1002       C  0.52402167  0.30876382  0.62886836     0.10380
S1003       S  0.56628531  0.44975113  0.57929946    -0.32970
S1004       S  0.47260133  0.26414245  0.65356924    -0.32980
H1005       H  0.44982909  0.25416351  0.60633450     0.28390
H1006       H  0.55326874  0.45985836  0.62563741     0.28390
H1007       H  0.52999693  0.36930557  0.52762491     0.18980
H1008       H  0.55419112  0.33672474  0.70314837     0.18980
C1009       C  0.86377667  0.39755758  0.92664889    -0.06850
C1010       C  0.84080798  0.35514170  0.90309642    -0.17970
C1011       C  0.82174834  0.31584808  0.93288166     0.10350
C1012       C  0.81718392  0.31864817  0.98689218    -0.06770
C1013       C  0.83799382  0.36166276  0.00884738    -0.18010
C1014       C  0.86563431  0.39928303  0.98068299     0.10380
S1015       S  0.80752797  0.26485409  0.89995186    -0.32970
S1016       S  0.90353477  0.44888098  0.01591395    -0.32980
H1017       H  0.93815855  0.45955366  0.98173160     0.28390
H1018       H  0.81859367  0.24662932  0.94148265     0.28390
H1019       H  0.83848493  0.35249148  0.86165577     0.18980
H1020       H  0.83701523  0.36583508  0.04987626     0.18980
C1021       C  0.85104409  0.46243299  0.92041306    -0.06850
C1022       C  0.80680593  0.43250632  0.93380074    -0.17970
C1023       C  0.78749568  0.44083351  0.97544636     0.10350
C1024       C  0.80613881  0.48526895  0.99378186    -0.06770
C1025       C  0.84638846  0.01787405  0.97310210    -0.18010
C1026       C  0.87088997  0.00664925  0.94094252     0.10380
S1027       S  0.74656694  0.39112454  0.00822963    -0.32970
S1028       S  0.92779620  0.04984296  0.93632884    -0.32980
H1029       H  0.94471637  0.02159384  0.94336676     0.28390
H1030       H  0.73793402  0.41287466  0.04748914     0.28390
H1031       H  0.79040003  0.39872279  0.91883615     0.18980
H1032       H  0.86148192  0.05179637  0.98741430     0.18980
C1033       C  0.54691172  0.32184059  0.99376508    -0.06850
C1034       C  0.58799901  0.35915456  0.00569474    -0.17970
C1035       C  0.59820883  0.40017430  0.98539577     0.10350
C1036       C  0.58202851  0.40184009  0.93610361    -0.06770
C1037       C  0.54902159  0.36059326  0.91560044    -0.18010
C1038       C  0.52610199  0.32343271  0.94751077     0.10380
S1039       S  0.62819062  0.44794913  0.02613550    -0.32970
S1040       S  0.47078090  0.28253038  0.92732354    -0.32980
H1041       H  0.46420609  0.24968575  0.96226507     0.28390
H1042       H  0.61424870  0.47423133  0.00065846     0.28390
H1043       H  0.60784411  0.35820329  0.03704370     0.18980
H1044       H  0.54136379  0.35617184  0.87532881     0.18980
C1045       C  0.65685781  0.46573160  0.90607576    -0.06850
C1046       C  0.68697098  0.01144685  0.91714428    -0.17970
C1047       C  0.72796212  0.02464687  0.94202734     0.10350
C1048       C  0.72993596  0.49288251  0.97388537    -0.06770
C1049       C  0.70346126  0.44857806  0.95711419    -0.18010
C1050       C  0.67411976  0.43754023  0.91549661     0.10380
S1051       S  0.77044239  0.08262877  0.94388246    -0.32970
S1052       S  0.65165085  0.38329543  0.88611133    -0.32980
H1053       H  0.63058293  0.39216738  0.84553270     0.28390
H1054       H  0.80261754  0.07580101  0.96733948     0.28390
H1055       H  0.67790243  0.03640375  0.91394914     0.18980
H1056       H  0.69998663  0.42168278  0.97950646     0.18980
C1057       C  0.73025533  0.22856177  0.98082439    -0.06850
C1058       C  0.72011745  0.25959161  0.96022322    -0.17850
C1059       C  0.68832216  0.24737481  0.92140504     0.10350
C1060       C  0.65942003  0.20165703  0.91011830    -0.06770
C1061       C  0.66976375  0.17078310  0.93060912    -0.18010
C1062       C  0.70724800  0.18462730  0.96125265     0.10380
S1063       S  0.68217012  0.29087368  0.89257680    -0.32970
S1064       S  0.72387217  0.14464237  0.97372049    -0.32980
H1065       H  0.76902100  0.17589973  0.98045617     0.28390
H1066       H  0.66095041  0.26632232  0.84783390     0.28390
H1067       H  0.73617714  0.29336583  0.97474318     0.18980
H1068       H  0.64766425  0.13537891  0.92542813     0.18980
C1069       C  0.55621528  0.24378593  0.99503219    -0.06850
C1070       C  0.54419185  0.23691901  0.94289879    -0.17970
C1071       C  0.56455326  0.22206445  0.90849192     0.10350
C1072       C  0.59052455  0.20473003  0.92760884    -0.06770
C1073       C  0.60169704  0.21151403  0.98048957    -0.18010
C1074       C  0.58881773  0.23534090  0.01181358     0.10380
S1075       S  0.56197035  0.23182390  0.84143262    -0.32970
S1076       S  0.61496588  0.25722838  0.07282953    -0.32980
H1077       H  0.62272261  0.30011703  0.06226298     0.28390
H1078       H  0.54116358  0.25697637  0.84582359     0.28390
H1079       H  0.51952283  0.24340952  0.92849819     0.18980
H1080       H  0.62292280  0.20073452  0.99657258     0.18980
C1081       C  0.50302929  0.20851933  0.49831960    -0.06850
C1082       C  0.51009659  0.21262599  0.44475857    -0.17970
C1083       C  0.49449634  0.17476357  0.41268967     0.10350
C1084       C  0.97520874  0.13197962  0.43513794    -0.06770
C1085       C  0.97014186  0.12857199  0.48861175    -0.18010
C1086       C  0.98037262  0.16526328  0.51914960     0.10380
S1087       S  0.49661952  0.18164856  0.34384750    -0.32970
S1088       S  0.96118396  0.15435534  0.58427789    -0.32980
H1089       H  0.95208390  0.18899828  0.58572050     0.28390
H1090       H  0.51216336  0.22762159  0.34395746     0.28390
H1091       H  0.52847049  0.24531574  0.42793577     0.18980
H1092       H  0.95385011  0.09599159  0.50627782     0.18980
C1093       C  0.82668344  0.02492440  0.48878416    -0.06850
C1094       C  0.84311170  0.06716960  0.46704423    -0.17970
C1095       C  0.87687051  0.08341565  0.43053655     0.10350
C1096       C  0.90149105  0.06180614  0.42260722    -0.06770
C1097       C  0.88342570  0.01856982  0.44238777    -0.18010
C1098       C  0.84420100  0.99880077  0.47058586     0.10380
S1099       S  0.88748802  0.13235986  0.39585597    -0.32970
S1100       S  0.81835414  0.44010131  0.48281083    -0.32980
H1101       H  0.77593574  0.43297195  0.48904174     0.28390
H1102       H  0.90191182  0.12049070  0.35172789     0.28390
H1103       H  0.83025084  0.08806575  0.47871295     0.18980
H1104       H  0.90021553  0.00019207  0.43781602     0.18980
C1105       C  0.89802014  0.06628005  0.14826234    -0.06850
C1106       C  0.88246552  0.02266598  0.13117585    -0.17970
C1107       C  0.84278474  0.99846174  0.10320833     0.10350
C1108       C  0.82083091  0.01999402  0.08269734    -0.06770
C1109       C  0.83590600  0.06370773  0.10056598    -0.18010
C1110       C  0.87186190  0.08526367  0.13563871     0.10380
S1111       S  0.82050975  0.43949844  0.09668386    -0.32970
S1112       S  0.88399409  0.13765962  0.16282842    -0.32980
H1113       H  0.90290117  0.13304959  0.20853410     0.28390
H1114       H  0.84953430  0.43578398  0.13106816     0.28390
H1115       H  0.90254608  0.00780256  0.13692157     0.18980
H1116       H  0.82018162  0.08156076  0.08688595     0.18980
C1117       C  0.97258970  0.13616209  0.13665670    -0.06850
C1118       C  0.99215756  0.17854594  0.15926062    -0.17970
C1119       C  0.01306554  0.21728215  0.12922704     0.10350
C1120       C  0.50950589  0.21333610  0.07434617    -0.06770
C1121       C  0.48986384  0.17011980  0.05307347    -0.18010
C1122       C  0.47533567  0.13271832  0.08348283     0.10380
S1123       S  0.04603570  0.26811387  0.16532085    -0.32970
S1124       S  0.46436365  0.08184664  0.05297051    -0.32980
H1125       H  0.47856537  0.06649224  0.09461322     0.28390
H1126       H  0.07321800  0.29347073  0.12521880     0.28390
H1127       H  0.99191454  0.18138091  0.20066700     0.18980
H1128       H  0.48822377  0.16539496  0.01183408     0.18980
C1129       C  0.91597083  0.35063888  0.43287977    -0.06850
C1130       C  0.87475420  0.32911534  0.40732985    -0.17970
C1131       C  0.83563915  0.30654152  0.43578935     0.10350
C1132       C  0.83843600  0.29702302  0.48838241    -0.06770
C1133       C  0.88028401  0.31174445  0.50994525    -0.18010
C1134       C  0.91698097  0.34486401  0.48595625     0.10380
S1135       S  0.78524147  0.29457965  0.40375410    -0.32970
S1136       S  0.96208836  0.38296191  0.52604818    -0.32980
H1137       H  0.97462976  0.41962107  0.49366688     0.28390
H1138       H  0.76739679  0.30386757  0.44652353     0.28390
H1139       H  0.87287497  0.33162020  0.36609712     0.18980
H1140       H  0.88344969  0.30578463  0.55021129     0.18980
C1141       C  0.98231498  0.34288934  0.41713301    -0.06850
C1142       C  0.95386023  0.29647456  0.42504562    -0.17970
C1143       C  0.96454571  0.27426549  0.46180792     0.10350
C1144       C  0.50772992  0.29468841  0.48103658    -0.06770
C1145       C  0.54018988  0.33305897  0.45615938    -0.18010
C1146       C  0.52765144  0.36105299  0.43199241     0.10380
S1147       S  0.92130572  0.22368912  0.48867710    -0.32970
S1148       S  0.56842999  0.41951445  0.43955285    -0.32980
H1149       H  0.53835021  0.43264714  0.45309672     0.28390
H1150       H  0.91219760  0.24724276  0.52554379     0.28390
H1151       H  0.92002258  0.27995981  0.41113865     0.18980
H1152       H  0.57414286  0.34737420  0.46917446     0.18980
C1153       C  0.90976793  0.34489429  0.12630254    -0.06850
C1154       C  0.86783492  0.32557277  0.14827239    -0.17970
C1155       C  0.83009087  0.30296016  0.11737829     0.10350
C1156       C  0.83446360  0.29130307  0.06650133    -0.06770
C1157       C  0.87634645  0.30474574  0.04778326    -0.18010
C1158       C  0.91290693  0.33721923  0.07357581     0.10380
S1159       S  0.77949992  0.29497209  0.14354835    -0.32970
S1160       S  0.96114954  0.37001705  0.03546568    -0.32980
H1161       H  0.96681600  0.41028696  0.05454779     0.28390
H1162       H  0.76458293  0.30431268  0.09764112     0.28390
H1163       H  0.86435874  0.32935006  0.18882790     0.18980
H1164       H  0.88007756  0.29744427  0.00827795     0.18980
C1165       C  0.97645254  0.34099917  0.14762001    -0.06850
C1166       C  0.95246915  0.29439618  0.13910605    -0.17970
C1167       C  0.96468357  0.27535810  0.09999393     0.10350
C1168       C  0.50771925  0.30049763  0.07960960    -0.06770
C1169       C  0.53579514  0.34300286  0.10153905    -0.18010
C1170       C  0.51918226  0.36575125  0.12705201     0.10380
S1171       S  0.92109703  0.22252418  0.07536736    -0.32970
S1172       S  0.55106428  0.42569953  0.11854570    -0.32980
H1173       H  0.51657053  0.43450287  0.12081993     0.28390
H1174       H  0.94280082  0.21687242  0.03456460     0.28390
H1175       H  0.91946561  0.27491294  0.15444451     0.18980
H1176       H  0.57044716  0.36158517  0.09509634     0.18980
C1177       C  0.74764065  0.20889732  0.07040730    -0.06850
C1178       C  0.77414422  0.19336360  0.09167042    -0.17970
C1179       C  0.75852727  0.16202457  0.13183312     0.10350
C1180       C  0.71375211  0.14093667  0.14740708    -0.06770
C1181       C  0.68873737  0.15855483  0.12850095    -0.18010
C1182       C  0.70620443  0.19341588  0.09310748     0.10380
S1183       S  0.79689903  0.14934179  0.16147977    -0.32970
S1184       S  0.67603398  0.21986894  0.07957807    -0.32980
H1185       H  0.64657821  0.20182949  0.12079175     0.28390
H1186       H  0.77298670  0.13244456  0.20703682     0.28390
H1187       H  0.80694124  0.20529528  0.07706547     0.18980
H1188       H  0.65417078  0.14284301  0.13748896     0.18980
C1189       C  0.73226844  0.02231840  0.06769204    -0.06850
C1190       C  0.70863585  0.04287365  0.05048823    -0.17970
C1191       C  0.68931094  0.05911087  0.08309119     0.10350
C1192       C  0.69966777  0.06350581  0.13539033    -0.06770
C1193       C  0.72022293  0.04100756  0.15510302    -0.18010
C1194       C  0.73264845  0.01708457  0.12216205     0.10380
S1195       S  0.64900240  0.07089887  0.05560356    -0.32970
S1196       S  0.74013697  0.47500882  0.15217085    -0.32980
H1197       H  0.71934726  0.44440394  0.11179356     0.28390
H1198       H  0.62222901  0.05896023  0.09915148     0.28390
H1199       H  0.70053593  0.04401499  0.01159342     0.18980
H1200       H  0.72473257  0.04039434  0.19621472     0.18980
C1201       C  0.74598125  0.21588898  0.48538877    -0.06850
C1202       C  0.70098610  0.19850201  0.47280173    -0.17970
C1203       C  0.67567105  0.15615324  0.45057321     0.10350
C1204       C  0.69745128  0.13589622  0.42750739    -0.06770
C1205       C  0.74388752  0.15872625  0.43052920    -0.18010
C1206       C  0.76686878  0.19394970  0.46501374     0.10380
S1207       S  0.61731933  0.12776262  0.46359794    -0.32970
S1208       S  0.81711325  0.19993376  0.49042100    -0.32980
H1209       H  0.80907546  0.20621390  0.54144920     0.28390
H1210       H  0.61257952  0.08568146  0.47116553     0.28390
H1211       H  0.68384857  0.21395107  0.48918039     0.18980
H1212       H  0.76122642  0.14341288  0.41434054     0.18980
C1213       C  0.69469636  0.06287061  0.44038699    -0.06850
C1214       C  0.69828622  0.06933176  0.49391837    -0.17970
C1215       C  0.72633889  0.06124525  0.52416499     0.10350
C1216       C  0.74525899  0.03709141  0.50418151    -0.06770
C1217       C  0.74079531  0.02890054  0.45058600    -0.18010
C1218       C  0.71908619  0.04478026  0.41832631     0.10380
S1219       S  0.73982333  0.08669384  0.58706219    -0.32970
S1220       S  0.72793048  0.04473103  0.35034795    -0.32980
H1221       H  0.72487485  0.08245795  0.33921927     0.28390
H1222       H  0.78185052  0.09122376  0.58965083     0.28390
H1223       H  0.68286679  0.08591510  0.51179311     0.18980
H1224       H  0.75510098  0.01106666  0.43331018     0.18980
C1225       C  0.64054563  0.56825977  0.37828010    -0.00160
C1226       C  0.67565588  0.58760497  0.41204567    -0.00160
C1227       C  0.69053238  0.59368657  0.16717441    -0.00160
C1228       C  0.65426569  0.57449234  0.19838348    -0.00160
O1229       O  0.62416932  0.99063979  0.35082689    -0.73670
O1230       O  0.53761989  0.90873540  0.22707978    -0.74650
O1231       O  0.63912806  0.99939842  0.23286450    -0.63270
O1232       O  0.53810919  0.91027028  0.33292151    -0.71680
O1233       O  0.53475327  0.97125087  0.34055917    -0.71230
O1234       O  0.58732562  0.50558522  0.19830498    -0.62480
O1235       O  0.51401401  0.95396108  0.24022474    -0.74990
O1236       O  0.62070256  0.53620177  0.30033036    -0.73770
Cu1237     Cu  0.58810859  0.94912634  0.28461499     1.04560
Cu1238     Cu  0.56388304  0.99348308  0.27036414     1.04330
C1239       C  0.63033723  0.52962906  0.34341826     0.92530
C1240       C  0.50613627  0.91779427  0.22233769     0.91670
C1241       C  0.62788220  0.52258168  0.20424535     0.83820
C1242       C  0.51930685  0.93002137  0.35189382     0.90090
C1243       C  0.96007651  0.89287417  0.19648280    -0.00160
C1244       C  0.94944499  0.86139831  0.15975347    -0.00160
C1245       C  0.95856905  0.86831982  0.40545568    -0.00160
C1246       C  0.97312722  0.90442167  0.37453498    -0.00160
C1247       C  0.96676528  0.58178883  0.20085874    -0.00160
C1248       C  0.94561899  0.59512286  0.16717842    -0.00160
C1249       C  0.97115970  0.57191736  0.37834405    -0.00160
C1250       C  0.94977000  0.58876370  0.40631153    -0.00160
O1251       O  0.53582890  0.58460054  0.20189887    -0.73670
O1252       O  0.57473846  0.56415054  0.34273445    -0.74650
O1253       O  0.50909154  0.58273627  0.30530689    -0.63270
O1254       O  0.59335555  0.56713062  0.24050443    -0.71680
O1255       O  0.63704179  0.63694377  0.23012348    -0.71230
O1256       O  0.55144015  0.63430775  0.35608869    -0.62480
O1257       O  0.63392506  0.63065478  0.34038266    -0.74990
O1258       O  0.54232915  0.64233393  0.23851217    -0.73770
Cu1259     Cu  0.55202822  0.57297574  0.27292826     1.04560
Cu1260     Cu  0.59419799  0.64227362  0.29024831     1.04330
C1261       C  0.51890267  0.60821101  0.20836003     0.92530
C1262       C  0.61511810  0.59048355  0.35678230     0.91670
C1263       C  0.51316945  0.60005457  0.34735502     0.83820
C1264       C  0.62901879  0.59639468  0.22305864     0.90090
O1265       O  0.90910289  0.91809292  0.35254260    -0.73670
O1266       O  0.90458750  0.00192314  0.23013578    -0.74650
O1267       O  0.89931589  0.90352005  0.23383775    -0.63270
O1268       O  0.90959481  0.00276956  0.33908355    -0.71680
O1269       O  0.97445218  0.50865511  0.34525864    -0.71230
O1270       O  0.95612006  0.95785675  0.19972770    -0.62480
O1271       O  0.97359603  0.52881890  0.24397474    -0.74990
O1272       O  0.95754889  0.92571446  0.30003929    -0.73770
Cu1273     Cu  0.89908241  0.95288520  0.28793151     1.04560
Cu1274     Cu  0.96739736  0.98080632  0.27272470     1.04330
C1275       C  0.94277865  0.91440871  0.34302635     0.92530
C1276       C  0.94495360  0.53498245  0.22543008     0.91670
C1277       C  0.93311207  0.91667397  0.20400902     0.83820
C1278       C  0.94890747  0.52351408  0.35759917     0.90090
C1279       C  0.58944870  0.65065614  0.86092750    -0.00160
C1280       C  0.61276354  0.68602850  0.89421441    -0.00160
C1281       C  0.58259217  0.96052020  0.87920772    -0.00160
C1282       C  0.60624797  0.94394072  0.90402039    -0.00160
C1283       C  0.90102334  0.95419166  0.85643925    -0.00160
C1284       C  0.87448976  0.93969841  0.89851082    -0.00160
C1285       C  0.59543488  0.94787392  0.70941213    -0.00160
C1286       C  0.60652855  0.92686381  0.67343255    -0.00160
O1287       O  0.64993467  0.52988489  0.73237067    -0.73670
O1288       O  0.64697423  0.62981155  0.82986318    -0.74650
O1289       O  0.64332543  0.53503833  0.84001516    -0.63270
O1290       O  0.64950159  0.62454982  0.72328660    -0.71680
O1291       O  0.58022143  0.57479129  0.70894445    -0.71230
O1292       O  0.57435993  0.50990646  0.82637208    -0.62480
O1293       O  0.57762659  0.58299261  0.82214902    -0.74990
O1294       O  0.58094885  0.50553868  0.71459212    -0.73770
Cu1295     Cu  0.65185348  0.58188650  0.78099316     1.04560
Cu1296     Cu  0.57753414  0.54297932  0.76819431     1.04330
C1297       C  0.61265780  0.49859960  0.71369297     0.92530
C1298       C  0.60719706  0.62079311  0.83780590     0.91670
C1299       C  0.60296318  0.50517878  0.84925559     0.83820
C1300       C  0.61119530  0.61387500  0.70447502     0.90090
C1301       C  0.59334753  0.64372415  0.68957307    -0.00160
C1302       C  0.61290782  0.67600308  0.65345016    -0.00160
C1303       C  0.93189397  0.96239397  0.68621119    -0.00160
C1304       C  0.89655397  0.94811406  0.65285225    -0.00160
O1305       O  0.52127312  0.58950505  0.87048785    -0.73670
O1306       O  0.98825587  0.51983516  0.74025407    -0.74650
O1307       O  0.55167577  0.61095366  0.76116461    -0.63270
O1308       O  0.96973496  0.51492268  0.84709970    -0.71680
O1309       O  0.92073138  0.53194817  0.82293326    -0.71230
O1310       O  0.01238672  0.62230048  0.70824881    -0.62480
O1311       O  0.93385401  0.53033601  0.71964223    -0.74990
O1312       O  0.01590507  0.63594671  0.82279937    -0.73770
Cu1313     Cu  0.00844746  0.55862138  0.80390518     1.04560
Cu1314     Cu  0.96730599  0.58304952  0.76949627     1.04330
C1315       C  0.53875493  0.62821390  0.85658148     0.92530
C1316       C  0.95223939  0.50693784  0.71527726     0.91670
C1317       C  0.55010762  0.62768481  0.71977163     0.83820
C1318       C  0.93008678  0.50382990  0.84391967     0.90090
O1319       O  0.55364469  0.94687055  0.77608462    -0.73670
O1320       O  0.94852203  0.95302168  0.79639745    -0.74650
O1321       O  0.51104871  0.95325896  0.86564738    -0.63270
O1322       O  0.99326969  0.95534884  0.71074449    -0.71680
O1323       O  0.93021288  0.89589653  0.72411306    -0.71230
O1324       O  0.01127078  0.89415925  0.84622639    -0.62480
O1325       O  0.92177709  0.89320245  0.83947621    -0.74990
O1326       O  0.01414533  0.88929951  0.73047974    -0.73770
Cu1327     Cu  0.00308294  0.95473651  0.78729936     1.04560
Cu1328     Cu  0.96575812  0.88635833  0.78534194     1.04330
C1329       C  0.55249157  0.92360731  0.74005588     0.92530
C1330       C  0.92200453  0.92959192  0.82996820     0.91670
C1331       C  0.53078313  0.93181496  0.87079181     0.83820
C1332       C  0.95220516  0.93393483  0.70136064     0.90090
C1333       C  0.80139249  0.78065631  0.02543904    -0.00160
C1334       C  0.76215682  0.74094276  0.02490170    -0.00160
C1335       C  0.52499415  0.78704229  0.03465776    -0.00160
C1336       C  0.52982861  0.75057977  0.03531951    -0.00160
C1337       C  0.75168396  0.50430151  0.02775642    -0.00160
C1338       C  0.78839078  0.49989619  0.03705683    -0.00160
C1339       C  0.76108167  0.51429218  0.54160252    -0.00160
C1340       C  0.79893464  0.51139494  0.53693218    -0.00160
C1341       C  0.51871295  0.78340896  0.53259122    -0.00160
C1342       C  0.52577537  0.74784367  0.53480638    -0.00160
C1343       C  0.76442343  0.74887115  0.52927633    -0.00160
C1344       C  0.80450969  0.78769055  0.52812880    -0.00160
C1345       C  0.82157345  0.82584255  0.56664796    -0.06850
C1346       C  0.84271307  0.86831199  0.54391918    -0.17970
C1347       C  0.87462531  0.90590535  0.57017573     0.10350
C1348       C  0.87758073  0.90498588  0.62388045    -0.06770
C1349       C  0.85311747  0.86365086  0.64866040    -0.18010
C1350       C  0.82896662  0.82374219  0.62018585     0.10380
S1351       S  0.91357130  0.95399037  0.53408922    -0.32970
S1352       S  0.81264014  0.77291342  0.65422034    -0.32980
H1353       H  0.81972244  0.75167153  0.61289396     0.28390
H1354       H  0.90399771  0.93285776  0.48573767     0.28390
H1355       H  0.83873334  0.87100719  0.50309809     0.18980
H1356       H  0.85366689  0.86219521  0.69010330     0.18980
C1357       C  0.87318413  0.97350622  0.63973707    -0.06850
C1358       C  0.82668495  0.94820091  0.63975650    -0.17970
C1359       C  0.80054939  0.95853510  0.60806004     0.10350
C1360       C  0.82017375  0.99968870  0.58135896    -0.06770
C1361       C  0.86610716  0.02877710  0.58937906    -0.18010
C1362       C  0.89301670  0.01528667  0.61442969     0.10380
S1363       S  0.74537643  0.91364872  0.59506355    -0.32970
S1364       S  0.95188792  0.05120551  0.60601852    -0.32980
H1365       H  0.96414045  0.01894924  0.60962709     0.28390
H1366       H  0.73939427  0.89156928  0.64210776     0.28390
H1367       H  0.81105682  0.91610552  0.65849309     0.18980
H1368       H  0.88223804  0.56054480  0.56991085     0.18980
C1369       C  0.65948104  0.69350592  0.63710001    -0.06850
C1370       C  0.68564131  0.74028548  0.63380703    -0.17970
C1371       C  0.71823841  0.75977380  0.59677886     0.10350
C1372       C  0.73468217  0.73441545  0.57457081    -0.06770
C1373       C  0.71511269  0.68918703  0.58820651    -0.18010
C1374       C  0.67428997  0.66752514  0.61213498     0.10380
S1375       S  0.72815834  0.81187891  0.57146077    -0.32970
S1376       S  0.64022718  0.60881501  0.59762158    -0.32980
H1377       H  0.60055400  0.60899440  0.59256011     0.28390
H1378       H  0.72788197  0.80006554  0.51992995     0.28390
H1379       H  0.67418156  0.76067732  0.65135065     0.18980
H1380       H  0.72680273  0.66893326  0.57087784     0.18980
C1381       C  0.55861852  0.74420478  0.56905664    -0.06850
C1382       C  0.55312177  0.73835818  0.62239101    -0.17970
C1383       C  0.57293701  0.71968204  0.65138535     0.10350
C1384       C  0.59104145  0.69731629  0.62631387    -0.06770
C1385       C  0.59777838  0.70372300  0.57306079    -0.18010
C1386       C  0.58653366  0.73104677  0.54613264     0.10380
S1387       S  0.57707070  0.72933796  0.71925554    -0.32970
S1388       S  0.60826362  0.74724189  0.48235521    -0.32980
H1389       H  0.60213461  0.78400608  0.48004042     0.28390
H1390       H  0.61700325  0.73003916  0.72661833     0.28390
H1391       H  0.53161746  0.74503726  0.64279784     0.18980
H1392       H  0.61520135  0.69026026  0.55292744     0.18980
C1393       C  0.72618470  0.98745046  0.58022511    -0.06850
C1394       C  0.73025498  0.49869918  0.63295073    -0.17970
C1395       C  0.69319490  0.97816468  0.66586226     0.10350
C1396       C  0.65078042  0.94681038  0.64539306    -0.06770
C1397       C  0.65069756  0.93035287  0.59578380    -0.18010
C1398       C  0.68567494  0.95140496  0.56257367     0.10380
S1399       S  0.70397253  0.48782054  0.73378316    -0.32970
S1400       S  0.67559897  0.92822521  0.49829348    -0.32980
H1401       H  0.71939458  0.94323742  0.48600533     0.28390
H1402       H  0.66811197  0.44658646  0.74892387     0.28390
H1403       H  0.76205193  0.52390164  0.64827919     0.18980
H1404       H  0.62322923  0.90013614  0.58092922     0.18980
C1405       C  0.52857668  0.81776903  0.57566066    -0.06850
C1406       C  0.53637819  0.86073785  0.56415813    -0.17970
C1407       C  0.55344005  0.89510359  0.60011790     0.10350
C1408       C  0.56832010  0.88796764  0.64732137    -0.06770
C1409       C  0.55064787  0.84371466  0.66347027    -0.18010
C1410       C  0.52402086  0.80876679  0.62886506     0.10380
S1411       S  0.56629446  0.94975595  0.57929439    -0.32970
S1412       S  0.47260307  0.76413858  0.65356221    -0.32980
H1413       H  0.44983117  0.75416318  0.60632751     0.28390
H1414       H  0.55328080  0.95986601  0.62563264     0.28390
H1415       H  0.53001014  0.86931201  0.52761903     0.18980
H1416       H  0.55418484  0.83672590  0.70314776     0.18980
C1417       C  0.86377881  0.89755538  0.92664997    -0.06850
C1418       C  0.84081014  0.85513979  0.90309697    -0.17970
C1419       C  0.82175164  0.81584599  0.93288163     0.10350
C1420       C  0.81718848  0.81864560  0.98689243    -0.06770
C1421       C  0.83799786  0.86165994  0.00884822    -0.18010
C1422       C  0.86563744  0.89928053  0.98068400     0.10380
S1423       S  0.80753139  0.76485255  0.89995072    -0.32970
S1424       S  0.90353771  0.94887850  0.01591502    -0.32980
H1425       H  0.93816152  0.95955109  0.98173274     0.28390
H1426       H  0.81860100  0.74662926  0.94147960     0.28390
H1427       H  0.83848633  0.85248997  0.86165630     0.18980
H1428       H  0.83701970  0.86583199  0.04987720     0.18980
C1429       C  0.85104509  0.96243012  0.92041651    -0.06850
C1430       C  0.80680756  0.93250315  0.93380657    -0.17970
C1431       C  0.78749821  0.94083145  0.97545222     0.10350
C1432       C  0.80614073  0.98526770  0.99378464    -0.06770
C1433       C  0.84638750  0.51787559  0.97310141    -0.18010
C1434       C  0.87088899  0.50665156  0.94094063     0.10380
S1435       S  0.74657070  0.89112360  0.00823874    -0.32970
S1436       S  0.92779488  0.54984577  0.93632530    -0.32980
H1437       H  0.94471562  0.52159726  0.94336475     0.28390
H1438       H  0.73793530  0.91287529  0.04749408     0.28390
H1439       H  0.79040165  0.89871909  0.91884364     0.18980
H1440       H  0.86148123  0.55179741  0.98741534     0.18980
C1441       C  0.54691232  0.82183351  0.99375670    -0.06850
C1442       C  0.58800280  0.85914306  0.00568529    -0.17970
C1443       C  0.59821520  0.90016528  0.98539066     0.10350
C1444       C  0.58203385  0.90183594  0.93610046    -0.06770
C1445       C  0.54902534  0.86059089  0.91559516    -0.18010
C1446       C  0.52610336  0.82342957  0.94750385     0.10380
S1447       S  0.62819541  0.94793580  0.02613672    -0.32970
S1448       S  0.47078102  0.78253018  0.92731700    -0.32980
H1449       H  0.46421154  0.74967611  0.96224206     0.28390
H1450       H  0.61425257  0.97421967  0.00066537     0.28390
H1451       H  0.60784498  0.85818704  0.03703524     0.18980
H1452       H  0.54136813  0.85617141  0.87532340     0.18980
C1453       C  0.65686223  0.96573313  0.90607656    -0.06850
C1454       C  0.68696893  0.51144545  0.91714018    -0.17970
C1455       C  0.72796023  0.52464422  0.94202172     0.10350
C1456       C  0.72993987  0.99288419  0.97388728    -0.06770
C1457       C  0.70346923  0.94858083  0.95711014    -0.18010
C1458       C  0.67412700  0.93754366  0.91549334     0.10380
S1459       S  0.77044516  0.58262470  0.94386764    -0.32970
S1460       S  0.65166075  0.88330072  0.88610381    -0.32980
H1461       H  0.63059076  0.89217281  0.84552767     0.28390
H1462       H  0.80261794  0.57579569  0.96732890     0.28390
H1463       H  0.67790270  0.53640394  0.91394360     0.18980
H1464       H  0.69999808  0.92168461  0.97949711     0.18980
C1465       C  0.73026091  0.72855955  0.98082448    -0.06850
C1466       C  0.72011999  0.75958885  0.96022904    -0.17850
C1467       C  0.68832148  0.74737207  0.92141505     0.10350
C1468       C  0.65942122  0.70165456  0.91012510    -0.06770
C1469       C  0.66976782  0.67078108  0.93061048    -0.18010
C1470       C  0.70725392  0.68462571  0.96125104     0.10380
S1471       S  0.68216725  0.79087116  0.89259170    -0.32970
S1472       S  0.72388158  0.64464260  0.97371263    -0.32980
H1473       H  0.76902964  0.67590098  0.98045233     0.28390
H1474       H  0.66095537  0.76632401  0.84784380     0.28390
H1475       H  0.73617993  0.79336265  0.97475051     0.18980
H1476       H  0.64766973  0.63537695  0.92542677     0.18980
C1477       C  0.55620834  0.74377331  0.99503600    -0.06850
C1478       C  0.54419898  0.73692142  0.94289821    -0.17970
C1479       C  0.56456125  0.72206608  0.90849405     0.10350
C1480       C  0.59052331  0.70472220  0.92761364    -0.06770
C1481       C  0.60168343  0.71149155  0.98049792    -0.18010
C1482       C  0.58879863  0.73531226  0.01182498     0.10380
S1483       S  0.56198742  0.73183085  0.84143430    -0.32970
S1484       S  0.61492286  0.75716973  0.07285828    -0.32980
H1485       H  0.62271353  0.80007192  0.06229677     0.28390
H1486       H  0.54119071  0.75699307  0.84582277     0.28390
H1487       H  0.51953971  0.74342362  0.92849168     0.18980
H1488       H  0.62290247  0.70070382  0.99658332     0.18980
C1489       C  0.50303271  0.70852141  0.49831829    -0.06850
C1490       C  0.51009785  0.71262714  0.44475681    -0.17970
C1491       C  0.49449577  0.67476424  0.41268835     0.10350
C1492       C  0.97520801  0.63198056  0.43513719    -0.06770
C1493       C  0.97014314  0.62857368  0.48861122    -0.18010
C1494       C  0.98037672  0.66526574  0.51914916     0.10380
S1495       S  0.49661700  0.68164839  0.34384608    -0.32970
S1496       S  0.96119298  0.65435944  0.58427931    -0.32980
H1497       H  0.95208685  0.68899815  0.58571951     0.28390
H1498       H  0.51216174  0.72762161  0.34395560     0.28390
H1499       H  0.52847181  0.74531655  0.42793322     0.18980
H1500       H  0.95385145  0.59599348  0.50627777     0.18980
C1501       C  0.82668139  0.52492564  0.48878385    -0.06850
C1502       C  0.84311032  0.56717124  0.46704485    -0.17970
C1503       C  0.87686950  0.58341747  0.43053772     0.10350
C1504       C  0.90148959  0.56180751  0.42260813    -0.06770
C1505       C  0.88342366  0.51857092  0.44238809    -0.18010
C1506       C  0.84419857  0.49880180  0.47058533     0.10380
S1507       S  0.88748753  0.63236207  0.39585767    -0.32970
S1508       S  0.81835761  0.94010061  0.48281273    -0.32980
H1509       H  0.77593884  0.93297055  0.48904294     0.28390
H1510       H  0.90190977  0.62049212  0.35172887     0.28390
H1511       H  0.83024958  0.58806745  0.47871379     0.18980
H1512       H  0.90021319  0.50019289  0.43781645     0.18980
C1513       C  0.89801252  0.56627567  0.14826554    -0.06850
C1514       C  0.88245771  0.52266170  0.13117851    -0.17970
C1515       C  0.84277819  0.49845878  0.10320836     0.10350
C1516       C  0.82082585  0.51999226  0.08269655    -0.06770
C1517       C  0.83590047  0.56370540  0.10056672    -0.18010
C1518       C  0.87185514  0.58526009  0.13564108     0.10380
S1519       S  0.82051618  0.93950111  0.09668733    -0.32970
S1520       S  0.88398851  0.63765675  0.16282983    -0.32980
H1521       H  0.90289403  0.63304595  0.20853640     0.28390
H1522       H  0.84954282  0.93578846  0.13106998     0.28390
H1523       H  0.90253779  0.50779779  0.13692457     0.18980
H1524       H  0.82017723  0.58155932  0.08688600     0.18980
C1525       C  0.97258069  0.63615753  0.13665732    -0.06850
C1526       C  0.99214782  0.67854155  0.15926047    -0.17970
C1527       C  0.01305223  0.71727723  0.12922586     0.10350
C1528       C  0.50948981  0.71333003  0.07434486    -0.06770
C1529       C  0.48984509  0.67011337  0.05307293    -0.18010
C1530       C  0.47532184  0.63271296  0.08348279     0.10380
S1531       S  0.04602197  0.76810995  0.16531863    -0.32970
S1532       S  0.46435119  0.58184186  0.05297024    -0.32980
H1533       H  0.47855662  0.56648944  0.09461137     0.28390
H1534       H  0.07320625  0.79346589  0.12521721     0.28390
H1535       H  0.99190707  0.68137709  0.20066698     0.18980
H1536       H  0.48820289  0.66538824  0.01183340     0.18980
C1537       C  0.91597373  0.85063927  0.43287720    -0.06850
C1538       C  0.87475691  0.82911663  0.40732770    -0.17970
C1539       C  0.83564203  0.80654289  0.43578744     0.10350
C1540       C  0.83843898  0.79702363  0.48838017    -0.06770
C1541       C  0.88028699  0.81174436  0.50994258    -0.18010
C1542       C  0.91698419  0.84486358  0.48595357     0.10380
S1543       S  0.78524442  0.79458217  0.40375298    -0.32970
S1544       S  0.96209357  0.88295850  0.52604524    -0.32980
H1545       H  0.97463536  0.91961918  0.49366635     0.28390
H1546       H  0.76740082  0.80387086  0.44652286     0.28390
H1547       H  0.87287741  0.83162191  0.36609508     0.18980
H1548       H  0.88345273  0.80578384  0.55020838     0.18980
C1549       C  0.98231738  0.84288908  0.41712926    -0.06850
C1550       C  0.95386238  0.79647454  0.42504355    -0.17970
C1551       C  0.96454821  0.77426645  0.46180681     0.10350
C1552       C  0.50773280  0.79468948  0.48103410    -0.06770
C1553       C  0.54019253  0.83305839  0.45615430    -0.18010
C1554       C  0.52765419  0.86105246  0.43198734     0.10380
S1555       S  0.92130866  0.72369121  0.48867862    -0.32970
S1556       S  0.56843371  0.91951379  0.43954693    -0.32980
H1557       H  0.53835476  0.93264706  0.45309272     0.28390
H1558       H  0.91219640  0.74724657  0.52553853     0.28390
H1559       H  0.92002445  0.77995971  0.41113754     0.18980
H1560       H  0.57414586  0.84737320  0.46916788     0.18980
C1561       C  0.90977324  0.84489752  0.12629966    -0.06850
C1562       C  0.86784064  0.82557391  0.14827055    -0.17970
C1563       C  0.83009650  0.80295854  0.11737743     0.10350
C1564       C  0.83446929  0.79130033  0.06650095    -0.06770
C1565       C  0.87635243  0.80474474  0.04778253    -0.18010
C1566       C  0.91291200  0.83722167  0.07357315     0.10380
S1567       S  0.77950584  0.79497098  0.14354710    -0.32970
S1568       S  0.96115281  0.87002219  0.03546131    -0.32980
H1569       H  0.96681966  0.91029092  0.05454806     0.28390
H1570       H  0.76459301  0.80431751  0.09764060     0.28390
H1571       H  0.86436476  0.82935198  0.18882595     0.18980
H1572       H  0.88008362  0.79744270  0.00827748     0.18980
C1573       C  0.97645763  0.84100270  0.14761676    -0.06850
C1574       C  0.95247347  0.79439951  0.13910494    -0.17970
C1575       C  0.96468364  0.77536032  0.09998986     0.10350
C1576       C  0.50771734  0.80049875  0.07959985    -0.06770
C1577       C  0.53579522  0.84300543  0.10152531    -0.18010
C1578       C  0.51918560  0.86575410  0.12704430     0.10380
S1579       S  0.92109484  0.72252535  0.07536874    -0.32970
S1580       S  0.55106912  0.92570277  0.11854173    -0.32980
H1581       H  0.51657622  0.93450727  0.12081780     0.28390
H1582       H  0.94279090  0.71688347  0.03455010     0.28390
H1583       H  0.91947137  0.77491693  0.15444747     0.18980
H1584       H  0.57044637  0.86158813  0.09507734     0.18980
C1585       C  0.74764602  0.70889525  0.07040622    -0.06850
C1586       C  0.77414645  0.69335866  0.09167097    -0.17970
C1587       C  0.75852616  0.66202032  0.13183453     0.10350
C1588       C  0.71375064  0.64093565  0.14740670    -0.06770
C1589       C  0.68874007  0.65855860  0.12850041    -0.18010
C1590       C  0.70621152  0.69341987  0.09310696     0.10380
S1591       S  0.79689377  0.64933400  0.16148523    -0.32970
S1592       S  0.67605187  0.71988461  0.07958053    -0.32980
H1593       H  0.64661569  0.70186701  0.12081482     0.28390
H1594       H  0.77297856  0.63243735  0.20704060     0.28390
H1595       H  0.80694351  0.70528812  0.07706736     0.18980
H1596       H  0.65417374  0.64285125  0.13748833     0.18980
C1597       C  0.73226674  0.52232044  0.06768752    -0.06850
C1598       C  0.70864138  0.54288301  0.05048271    -0.17970
C1599       C  0.68931216  0.55911592  0.08308534     0.10350
C1600       C  0.69966184  0.56350350  0.13538618    -0.06770
C1601       C  0.72021305  0.54100133  0.15509879    -0.18010
C1602       C  0.73264005  0.51708020  0.12215683     0.10380
S1603       S  0.64900744  0.57090819  0.05559512    -0.32970
S1604       S  0.74014949  0.97501710  0.15217981    -0.32980
H1605       H  0.71936083  0.94440936  0.11180491     0.28390
H1606       H  0.62223110  0.55896806  0.09914069     0.28390
H1607       H  0.70055113  0.54403441  0.01158651     0.18980
H1608       H  0.72471885  0.54038401  0.19621071     0.18980
C1609       C  0.74598348  0.71589039  0.48538602    -0.06850
C1610       C  0.70098842  0.69850450  0.47279934    -0.17970
C1611       C  0.67567240  0.65615599  0.45057046     0.10350
C1612       C  0.69745155  0.63589806  0.42750416    -0.06770
C1613       C  0.74388782  0.65872719  0.43052548    -0.18010
C1614       C  0.76687004  0.69395043  0.46501008     0.10380
S1615       S  0.61732080  0.62776665  0.46359542    -0.32970
S1616       S  0.81711457  0.69993355  0.49041584    -0.32980
H1617       H  0.80907833  0.70621470  0.54144433     0.28390
H1618       H  0.61257996  0.58568510  0.47116341     0.28390
H1619       H  0.68385163  0.71395414  0.48917853     0.18980
H1620       H  0.76122594  0.64341318  0.41433632     0.18980
C1621       C  0.69469498  0.56287184  0.44038480    -0.06850
C1622       C  0.69828449  0.56933293  0.49391619    -0.17970
C1623       C  0.72633654  0.56124587  0.52416333     0.10350
C1624       C  0.74525694  0.53709225  0.50418005    -0.06770
C1625       C  0.74079386  0.52890173  0.45058446    -0.18010
C1626       C  0.71908480  0.54478134  0.41832448     0.10380
S1627       S  0.73981955  0.58669310  0.58706126    -0.32970
S1628       S  0.72792870  0.54473133  0.35034612    -0.32980
H1629       H  0.72487269  0.58245790  0.33921664     0.28390
H1630       H  0.78184683  0.59122329  0.58965079     0.28390
H1631       H  0.68286509  0.58591640  0.51179059     0.18980
H1632       H  0.75509968  0.51106792  0.43330884     0.18980
loop_ 
_geom_bond_atom_site_label_1 
_geom_bond_atom_site_label_2 
_geom_bond_distance 
_geom_bond_site_symmetry_2 
_ccdc_geom_bond_type 
C1            C2   1.373       .  D
C1           C15   1.507       .  S
C1           C38   1.555       .  S
C2          C388   1.505       .  S
C2          C397   1.524       .  S
C3            C4   1.375       .  D
C3          C364   1.512       .  S
C3          C376   1.500       .  S
C4           C17   1.567       .  S
C4           C40   1.580       .  S
O5          Cu13   2.183       .  S
O5          C423   1.279       .  A
O6          Cu13   2.187       .  S
O6           C16   1.304       .  A
O7          Cu13   2.227       .  S
O7          C425   1.300       .  A
O8          Cu13   2.033       .  S
O8           C18   1.278       .  A
O9          Cu14   2.056       .  S
O9           C18   1.288       .  A
O10        Cu422   2.016   1_545  S
O10          C17   1.244       .  A
O11         Cu14   1.761       .  S
O11          C16   1.236       .  A
O12        Cu422   1.939   1_545  S
O12          C15   1.225       .  A
Cu13        Cu14   2.147       .  S
Cu14        O418   2.016       .  S
Cu14        O420   1.939       .  S
C15         O413   1.279   1_545  A
C16         C835   1.543   1_455  S
C17         O415   1.300   1_545  A
C18         C838   1.526   1_455  S
C19          C20   1.355       .  D
C19          C53   1.563       .  S
C19         C832   1.543       .  S
C20         C337   1.482       .  S
C20         C349   1.487       .  S
C21          C22   1.360       .  D
C21         C313   1.490       .  S
C21         C325   1.528       .  S
C22          C51   1.517       .  S
C22         C834   1.526       .  S
C23          C24   1.372       .  D
C23          C52   1.549       .  S
C23         C853   1.589       .  S
C24         C289   1.526       .  S
C24         C301   1.488       .  S
C25          C26   1.382       .  D
C25          C54   1.549       .  S
C25         C855   1.532       .  S
C26         C268   1.500       .  S
C26         C280   1.530       .  S
O27         Cu35   2.032       .  S
O27          C37   1.252       .  A
O28         Cu35   2.065       .  S
O28          C38   1.287       .  A
O29         Cu35   1.916       .  S
O29          C39   1.222       .  A
O30         Cu35   1.790       .  S
O30          C40   1.237       .  A
O31         Cu36   2.259       .  S
O31          C40   1.307       .  A
O32         Cu36   2.217       .  S
O32          C39   1.283       .  A
O33         Cu36   2.091       .  S
O33          C38   1.283       .  A
O34         Cu36   2.260       .  S
O34          C37   1.304       .  A
Cu35        Cu36   2.140       .  S
C37         C839   1.589   1_455  S
C39         C841   1.532   1_455  S
O41         Cu49   2.205       .  S
O41          C51   1.284       .  A
O42         Cu49   2.215       .  S
O42         C460   1.303       .  A
O43         Cu49   2.230       .  S
O43          C53   1.302       .  A
O44         Cu49   2.068       .  S
O44         C462   1.280       .  A
O45        Cu458   2.079   1_545  S
O45          C54   1.291       .  A
O46         Cu50   2.019       .  S
O46          C53   1.245       .  A
O47        Cu458   1.746   1_545  S
O47          C52   1.229       .  A
O48         Cu50   1.911       .  S
O48          C51   1.218       .  A
Cu49        Cu50   2.127       .  S
Cu50        O453   2.079       .  S
Cu50        O455   1.746       .  S
C52         O450   1.303       .  A
C54         O452   1.280       .  A
C55          C56   1.379       .  D
C55          C74   1.586       .  S
C55          C91   1.544       .  S
C56         C244   1.497       .  S
C56         C256   1.528       .  S
C57          C58   1.389       .  D
C57         C107   1.584       .  S
C57         C483   1.557       .  S
C58         C220   1.524       .  S
C58         C229   1.541       .  S
C59          C60   1.368       .  D
C59         C106   1.555       .  S
C59         C502   1.534       .  S
C60         C193   1.511       .  S
C60         C205   1.522       .  S
C61          C62   1.367       .  D
C61         C105   1.537       .  S
C61         C481   1.555       .  S
C62         C172   1.538       .  S
C62         C184   1.494       .  S
O63         Cu71   2.186       .  S
O63          C73   1.295   1_545  A
O64         Cu71   2.179       .  S
O64          C74   1.289       .  A
O65         Cu71   2.154       .  S
O65          C75   1.289       .  A
O66         Cu71   2.147       .  S
O66          C76   1.293       .  A
O67         Cu72   1.877       .  S
O67          C76   1.244       .  A
O68         Cu72   1.875       .  S
O68          C75   1.247       .  A
O69         Cu72   1.981       .  S
O69          C74   1.257       .  A
O70         Cu72   1.959       .  S
O70          C73   1.259   1_545  A
Cu71        Cu72   2.272       .  S
C73         C469   1.555       .  S
C75         C465   1.557   1_545  S
C76          C77   1.515       .  S
C77          C78   1.361       .  D
C77          C93   1.552       .  S
C78         C145   1.496       .  S
C78         C160   1.490       .  S
C79          C80   1.377       .  D
C79         C108   1.541       .  S
C79         C500   1.535       .  S
C80         C124   1.498       .  S
C80         C133   1.523       .  S
O81        Cu905   1.965       .  S
O81          C91   1.222       .  A
O82         Cu89   2.020       .  S
O82          C92   1.279       .  A
O83        Cu905   2.023       .  S
O83          C93   1.241       .  A
O84         Cu89   1.834       .  S
O84          C94   1.246       .  A
O85         Cu90   2.208       .  S
O85          C94   1.303       .  A
O86         Cu90   2.186       .  S
O86         C909   1.276       .  A
O87         Cu90   2.053       .  S
O87          C92   1.281       .  A
O88         Cu90   2.234       .  S
O88         C907   1.305       .  A
Cu89        O897   1.965       .  S
Cu89        O899   2.023       .  S
Cu89        Cu90   2.206       .  S
C91         O904   1.305       .  A
C92         C487   1.535   1_545  S
C93         O902   1.276       .  A
C94         C467   1.534   1_545  S
O95        Cu919   1.961       .  S
O95         C105   1.228       .  A
O96        Cu103   1.910       .  S
O96         C106   1.243       .  A
O97        Cu919   2.062       .  S
O97         C107   1.262       .  A
O98        Cu103   2.023       .  S
O98         C108   1.265       .  A
O99        Cu104   2.147       .  S
O99         C108   1.294       .  A
O100       Cu104   2.159       .  S
O100        C923   1.295       .  A
O101       Cu104   2.207       .  S
O101        C106   1.291       .  A
O102       Cu104   2.198       .  S
O102        C921   1.289       .  A
Cu103       O911   1.961       .  S
Cu103       O913   2.062       .  S
Cu103      Cu104   2.055       .  S
C105        O918   1.289       .  A
C107        O916   1.295       .  A
C109        C110   1.370       .  D
C109        C196   1.528   1_554  S
C109        C340   1.474       .  S
C110        C241   1.498   1_554  S
C110        C361   1.532       .  S
C111        C112   1.368       .  D
C111        C217   1.506   1_554  S
C111        C352   1.506       .  S
C112        C253   1.506   1_554  S
C112        C304   1.518       .  S
C113        C114   1.397   1_545  D
C113        C373   1.549       .  S
C113        C640   1.543   1_544  S
C114        C292   1.538   1_565  S
C114        C616   1.505   1_554  S
C115        C116   1.395       .  D
C115        C400   1.529       .  S
C115        C577   1.501   1_545  S
C116        C277   1.519       .  S
C116        C544   1.537   1_545  S
C117        C118   1.387       .  D
C117        C181   1.544       .  S
C117        C328   1.501       .  S
C118        C157   1.510       .  S
C118        C265   1.514       .  S
C119        C120   1.371       .  D
C119        C148   1.494       .  S
C119        C385   1.509       .  S
C120        C121   1.521       .  S
C120        C316   1.495       .  S
C121        C122   1.409       .  A
C121        C126   1.425       .  A
C122        C123   1.390       .  A
C122        H131   1.082       .  S
C123        C124   1.404       .  A
C123        S127   1.806       .  S
C124        C125   1.409       .  A
C125        C126   1.411       .  A
C125        H132   1.081       .  S
C126        S128   1.799       .  S
S127        H130   1.408       .  S
S128        H129   1.402       .  S
C133        C134   1.409       .  A
C133        C138   1.421       .  A
C134        C135   1.408       .  A
C134        H143   1.083       .  S
C135        C136   1.422       .  A
C135        S139   1.796       .  S
C136        C524   1.537       .  S
C136        C137   1.417       .  A
C137        C138   1.411       .  A
C137        H552   1.083       .  S
C138        S140   1.810       .  S
S139        H142   1.407       .  S
S140        H141   1.400       .  S
H144        C545   1.083       .  S
C145        C146   1.410       .  A
C145        C150   1.417       .  A
C146        C147   1.392       .  A
C146        H155   1.085       .  S
C147        C148   1.409       .  A
C147        S151   1.795       .  S
C148        C149   1.410       .  A
C149        C150   1.392       .  A
C149        H156   1.084       .  S
C150        S152   1.806       .  S
S151        H154   1.403       .  S
S152        H153   1.406       .  S
C157        C158   1.406       .  A
C157        C162   1.417       .  A
C158        C159   1.392       .  A
C158        H167   1.049       .  S
C159        C160   1.400       .  A
C159        S163   1.791       .  S
C160        C161   1.409       .  A
C161        C162   1.393       .  A
C161        H168   1.084       .  S
C162        S164   1.803       .  S
S163        H166   1.406       .  S
S164        H165   1.407       .  S
C169        C523   1.501       .  S
C169        C174   1.409       .  A
C169        C578   1.414       .  A
C170        C577   1.414       .  A
C170        C579   1.422       .  A
C170        H179   1.083   1_565  S
C171        C172   1.424       .  A
C171        C578   1.422       .  A
C171        S583   1.801       .  S
C172        C173   1.414       .  A
C173        C174   1.380       .  A
C173        H180   1.072       .  S
C174        S176   1.811       .  S
S175        C579   1.801       .  S
S175        H178   1.406       .  S
S176        H177   1.394       .  S
C181        C182   1.413       .  A
C181        C186   1.414       .  A
C182        C183   1.389       .  A
C182        H191   1.054       .  S
C183        C184   1.403       .  A
C183        S187   1.807       .  S
C184        C185   1.405       .  A
C185        C186   1.412       .  A
C185        H192   1.083       .  S
C186        S188   1.807   1_455  S
S187        H190   1.403       .  S
S188        H189   1.405       .  S
C193        C194   1.411       .  A
C193        C198   1.408       .  A
C194        C195   1.416       .  A
C194        H203   1.082       .  S
C195        C196   1.427       .  A
C195        S199   1.799       .  S
C196        C197   1.410   1_556  A
C197        C198   1.386   1_554  A
C197        H204   1.082       .  S
C198        S200   1.799   1_556  S
S199        H202   1.404       .  S
S200        H201   1.407   1_554  S
C205        C206   1.411       .  A
C205        C618   1.431       .  A
C206        C207   1.394       .  A
C206        H215   1.085       .  S
C207        C208   1.421       .  A
C207        S211   1.814   1_556  S
C208        C522   1.505   1_556  S
C208        C617   1.402       .  A
C209        C210   1.401       .  A
C209        C616   1.402   1_545  A
C209        H216   1.085       .  S
C210        C613   1.431   1_545  A
C210        S212   1.796       .  S
S211        H214   1.399       .  S
S212        H213   1.400       .  S
C217        C218   1.398   1_556  A
C217        C222   1.420       .  A
C218        C219   1.392   1_554  A
C218        H227   1.081       .  S
C219        C220   1.413       .  A
C219        S223   1.789   1_556  S
C220        C221   1.410       .  A
C221        C222   1.404       .  A
C221        H228   1.072       .  S
C222        S224   1.803   1_455  S
S223        H226   1.406       .  S
S224        H225   1.390       .  S
C229        C234   1.417       .  A
C229        C638   1.421       .  A
C230        C231   1.421       .  A
C230        C637   1.421   1_545  A
C230        H239   1.073       .  S
C231        C640   1.415   1_545  A
C231        S235   1.801       .  S
C232        C521   1.543   1_556  S
C232        C233   1.404       .  A
C232        C639   1.415       .  A
C233        C234   1.401       .  A
C233        H240   1.059       .  S
C234        S236   1.804       .  S
S235        H238   1.406       .  S
S236        H237   1.408       .  S
C241        C242   1.407       .  A
C241        C246   1.411       .  A
C242        C243   1.396       .  A
C242        H251   1.081       .  S
C243        C244   1.416       .  A
C243        S247   1.803       .  S
C244        C245   1.406       .  A
C245        C246   1.393       .  A
C245        H252   1.080       .  S
C246        S248   1.797       .  S
S247        H250   1.407       .  S
S248        H249   1.405       .  S
C253        C254   1.402       .  A
C253        C258   1.390   1_556  A
C254        C255   1.407       .  A
C254        H263   1.069       .  S
C255        C256   1.417       .  A
C255        S259   1.790       .  S
C256        C257   1.415       .  A
C257        C258   1.399   1_556  A
C257        H264   1.076       .  S
C258        S260   1.792       .  S
S259        H262   1.407       .  S
S260        H261   1.406       .  S
C265        C266   1.415       .  A
C265       C1086   1.411   1_455  A
C266        C267   1.413   1_455  A
C266        H275   1.080       .  S
C267       C1084   1.417       .  A
C267        S271   1.807       .  S
C268        C269   1.404       .  A
C268       C1083   1.417       .  A
C269        C270   1.388       .  A
C269        H276   1.084       .  S
C270       C1081   1.411       .  A
C270        S272   1.801       .  S
S271        H274   1.407   1_655  S
S272        H273   1.401       .  S
C277        C278   1.402       .  A
C277        C282   1.421   1_545  A
C278        C279   1.406       .  A
C278        H287   1.082       .  S
C279        C280   1.427       .  A
C279        S283   1.798       .  S
C280        C281   1.406       .  A
C281        C282   1.405   1_545  A
C281        H288   1.079       .  S
C282        S692   1.798       .  S
S283        H286   1.407       .  S
S284        C690   1.798       .  S
S284        H285   1.395       .  S
C289        C290   1.400       .  A
C289        C294   1.419       .  A
C290        C291   1.404   1_545  A
C290        H299   1.079       .  S
C291        C292   1.426   1_565  A
C291        S703   1.797       .  S
C292        C293   1.412       .  A
C293        C294   1.417       .  A
C293        H300   1.082       .  S
C294        S296   1.796       .  S
S295        C699   1.797       .  S
S295        H298   1.408       .  S
S296        H297   1.407       .  S
C301        C302   1.400       .  A
C301       C1122   1.399       .  A
C302        C303   1.407       .  A
C302        H311   1.084       .  S
C303       C1120   1.434       .  A
C303        S307   1.804       .  S
C304        C305   1.410   1_455  A
C304       C1119   1.434       .  A
C305        C306   1.386       .  A
C305        H312   1.083       .  S
C306       C1117   1.399       .  A
C306        S308   1.797       .  S
S307        H310   1.396       .  S
S308        H309   1.406       .  S
C313        C314   1.408       .  A
C313        C318   1.400       .  A
C314        C315   1.408       .  A
C314        H323   1.082       .  S
C315        C316   1.424       .  A
C315        S319   1.799       .  S
C316        C317   1.401       .  A
C317        C318   1.375       .  A
C317        H324   1.085       .  S
C318        S320   1.787       .  S
S319        H322   1.402       .  S
S320        H321   1.406       .  S
C325        C326   1.421       .  A
C325       C1146   1.434       .  A
C326        C327   1.397       .  A
C326        H335   1.084       .  S
C327       C1144   1.397       .  A
C327        S331   1.790       .  S
C328        C329   1.405       .  A
C328       C1143   1.397   1_455  A
C329        C330   1.408       .  A
C329        H336   1.085       .  S
C330       C1141   1.434   1_455  A
C330        S332   1.808       .  S
S331        H334   1.406       .  S
S332        H333   1.401       .  S
C337        C338   1.402       .  A
C337        C342   1.416       .  A
C338        C339   1.395       .  A
C338        H347   1.081       .  S
C339        C340   1.419       .  A
C339        S343   1.799       .  S
C340        C341   1.394       .  A
C341        C342   1.374       .  A
C341        H348   1.086       .  S
C342        S344   1.799       .  S
S343        H346   1.405       .  S
S344        H345   1.405       .  S
C349        C350   1.415       .  A
C349       C1170   1.410       .  A
C350        C351   1.402       .  A
C350        H359   1.085       .  S
C351       C1168   1.418       .  A
C351        S355   1.805       .  S
C352        C353   1.413       .  A
C352       C1167   1.418   1_455  A
C353        C354   1.378       .  A
C353        H360   1.065       .  S
C354       C1165   1.410   1_455  A
C354        S356   1.816       .  S
S355        H358   1.387       .  S
S356        H357   1.399       .  S
C361        C362   1.407       .  A
C361        C366   1.409       .  A
C362        C363   1.412       .  A
C362        H371   1.082       .  S
C363        C364   1.422       .  A
C363        S367   1.792       .  S
C364        C365   1.394       .  A
C365        C366   1.399       .  A
C365        H372   1.078       .  S
C366        S368   1.761       .  S
S367        H370   1.407       .  S
S368        H369   1.408       .  S
C373        C374   1.418       .  A
C373        C378   1.432       .  A
C374        C375   1.383       .  A
C374        H383   1.056       .  S
C375        C376   1.395       .  A
C375        S379   1.810       .  S
C376        C377   1.407       .  A
C377        C378   1.417       .  A
C377        H384   1.083       .  S
C378        S788   1.798   1_545  S
S379        H382   1.404       .  S
S380        C786   1.798       .  S
S380        H381   1.403       .  S
C385        C386   1.413       .  A
C385        C390   1.412       .  A
C386        C387   1.400       .  A
C386        H395   1.084       .  S
C387        C388   1.419       .  A
C387        S391   1.805       .  S
C388        C389   1.409       .  A
C389        C390   1.394       .  A
C389        H396   1.084       .  S
C390        S392   1.793       .  S
S391        H394   1.406       .  S
S392        H393   1.403       .  S
C397        C398   1.407       .  A
C397        C402   1.426       .  A
C398        C399   1.395       .  A
C398        H407   1.083       .  S
C399        C400   1.417       .  A
C399        S403   1.803       .  S
C400        C401   1.416       .  A
C401        C402   1.421       .  A
C401        H408   1.081       .  S
C402        S404   1.802       .  S
S403        H406   1.407       .  S
S404        H405   1.405       .  S
C409        C410   1.373       .  D
C409        C423   1.507       .  S
C409        C446   1.555       .  S
C410        C796   1.505       .  S
C410        C805   1.524       .  S
C411        C412   1.375       .  D
C411        C772   1.512       .  S
C411        C784   1.500       .  S
C412        C425   1.567       .  S
C412        C448   1.580       .  S
O413       Cu421   2.183       .  S
O414       Cu421   2.187       .  S
O414        C424   1.304       .  A
O415       Cu421   2.227       .  S
O416       Cu421   2.033       .  S
O416        C426   1.278       .  A
O417       Cu422   2.056       .  S
O417        C426   1.288       .  A
O418        C425   1.244       .  A
O419       Cu422   1.761       .  S
O419        C424   1.236       .  A
O420        C423   1.225       .  A
Cu421      Cu422   2.147       .  S
C424       C1243   1.543   1_455  S
C426       C1246   1.526   1_455  S
C427        C428   1.355       .  D
C427       C1240   1.543       .  S
C427        C461   1.563       .  S
C428        C745   1.482       .  S
C428        C757   1.487       .  S
C429        C430   1.360       .  D
C429        C721   1.490       .  S
C429        C733   1.528       .  S
C430       C1242   1.526       .  S
C430        C459   1.517       .  S
C431        C432   1.372       .  D
C431       C1261   1.589       .  S
C431        C460   1.549       .  S
C432        C697   1.526       .  S
C432        C709   1.488       .  S
C433        C434   1.382       .  D
C433       C1263   1.532       .  S
C433        C462   1.549       .  S
C434        C676   1.500       .  S
C434        C688   1.530       .  S
O435       Cu443   2.032       .  S
O435        C445   1.252       .  A
O436       Cu443   2.065       .  S
O436        C446   1.287       .  A
O437       Cu443   1.916       .  S
O437        C447   1.222       .  A
O438       Cu443   1.790       .  S
O438        C448   1.237       .  A
O439       Cu444   2.259       .  S
O439        C448   1.307       .  A
O440       Cu444   2.217       .  S
O440        C447   1.283       .  A
O441       Cu444   2.091       .  S
O441        C446   1.283       .  A
O442       Cu444   2.260       .  S
O442        C445   1.304       .  A
Cu443      Cu444   2.140       .  S
C445       C1247   1.589   1_455  S
C447       C1249   1.532   1_455  S
O449       Cu457   2.205       .  S
O449        C459   1.284       .  A
O450       Cu457   2.215   1_545  S
O451       Cu457   2.230       .  S
O451        C461   1.302       .  A
O452       Cu457   2.068   1_545  S
O453        C462   1.291       .  A
O454       Cu458   2.019       .  S
O454        C461   1.245       .  A
O455        C460   1.229       .  A
O456       Cu458   1.911       .  S
O456        C459   1.218       .  A
Cu457      Cu458   2.127       .  S
C463        C464   1.379       .  D
C463        C482   1.586       .  S
C463        C499   1.544       .  S
C464        C652   1.497       .  S
C464        C664   1.528       .  S
C465        C466   1.389       .  D
C465        C515   1.584       .  S
C466        C628   1.524       .  S
C466        C637   1.541       .  S
C467        C468   1.368       .  D
C467        C514   1.555       .  S
C468        C601   1.511       .  S
C468        C613   1.522       .  S
C469        C470   1.367       .  D
C469        C513   1.537       .  S
C470        C580   1.538       .  S
C470        C592   1.494       .  S
O471       Cu479   2.186       .  S
O471        C481   1.295       .  A
O472       Cu479   2.179       .  S
O472        C482   1.289       .  A
O473       Cu479   2.154       .  S
O473        C483   1.289       .  A
O474       Cu479   2.147       .  S
O474        C484   1.293       .  A
O475       Cu480   1.877       .  S
O475        C484   1.244       .  A
O476       Cu480   1.875       .  S
O476        C483   1.247       .  A
O477       Cu480   1.980       .  S
O477        C482   1.257       .  A
O478       Cu480   1.959       .  S
O478        C481   1.259       .  A
Cu479      Cu480   2.272       .  S
C484        C485   1.515       .  S
C485        C486   1.361       .  D
C485        C501   1.552       .  S
C486        C553   1.496       .  S
C486        C568   1.490       .  S
C487        C488   1.377       .  D
C487        C516   1.541       .  S
C488        C532   1.498       .  S
C488        C541   1.523       .  S
O489      Cu1313   1.965       .  S
O489        C499   1.222       .  A
O490       Cu497   2.020       .  S
O490        C500   1.279       .  A
O491      Cu1313   2.023       .  S
O491        C501   1.241       .  A
O492       Cu497   1.834       .  S
O492        C502   1.246       .  A
O493       Cu498   2.208       .  S
O493        C502   1.303       .  A
O494       Cu498   2.186       .  S
O494       C1317   1.276       .  A
O495       Cu498   2.053       .  S
O495        C500   1.281       .  A
O496       Cu498   2.234       .  S
O496       C1315   1.305       .  A
Cu497      O1305   1.965       .  S
Cu497      O1307   2.023       .  S
Cu497      Cu498   2.206       .  S
C499       O1312   1.305       .  A
C501       O1310   1.276       .  A
O503      Cu1327   1.961       .  S
O503        C513   1.228       .  A
O504       Cu511   1.910       .  S
O504        C514   1.243       .  A
O505      Cu1327   2.062       .  S
O505        C515   1.262       .  A
O506       Cu511   2.023       .  S
O506        C516   1.265       .  A
O507       Cu512   2.147       .  S
O507        C516   1.294       .  A
O508       Cu512   2.159       .  S
O508       C1331   1.295       .  A
O509       Cu512   2.207       .  S
O509        C514   1.291       .  A
O510       Cu512   2.198       .  S
O510       C1329   1.289       .  A
Cu511      O1319   1.961       .  S
Cu511      O1321   2.062       .  S
Cu511      Cu512   2.055       .  S
C513       O1326   1.289       .  A
C515       O1324   1.295       .  A
C517        C518   1.370       .  D
C517        C604   1.528   1_554  S
C517        C748   1.474       .  S
C518        C649   1.498   1_554  S
C518        C769   1.532       .  S
C519        C520   1.368       .  D
C519        C625   1.506   1_554  S
C519        C760   1.506       .  S
C520        C661   1.506   1_554  S
C520        C712   1.518       .  S
C521        C522   1.397       .  D
C521        C781   1.549       .  S
C522        C700   1.538       .  S
C523        C524   1.395       .  D
C523        C808   1.529       .  S
C524        C685   1.519       .  S
C525        C526   1.387       .  D
C525        C589   1.544       .  S
C525        C736   1.501       .  S
C526        C565   1.510       .  S
C526        C673   1.514       .  S
C527        C528   1.371       .  D
C527        C556   1.494       .  S
C527        C793   1.509       .  S
C528        C529   1.521       .  S
C528        C724   1.495       .  S
C529        C530   1.409       .  A
C529        C534   1.425       .  A
C530        C531   1.390       .  A
C530        H539   1.082       .  S
C531        C532   1.404       .  A
C531        S535   1.806       .  S
C532        C533   1.409       .  A
C533        C534   1.411       .  A
C533        H540   1.081       .  S
C534        S536   1.799       .  S
S535        H538   1.408       .  S
S536        H537   1.402       .  S
C541        C542   1.409       .  A
C541        C546   1.421   1_565  A
C542        C543   1.408       .  A
C542        H551   1.083       .  S
C543        C544   1.422       .  A
C543        S547   1.796       .  S
C544        C545   1.417   1_565  A
C545        C546   1.411       .  A
C546        S548   1.810       .  S
S547        H550   1.407       .  S
S548        H549   1.400       .  S
C553        C554   1.410       .  A
C553        C558   1.417       .  A
C554        C555   1.392       .  A
C554        H563   1.085       .  S
C555        C556   1.409       .  A
C555        S559   1.795       .  S
C556        C557   1.410       .  A
C557        C558   1.392       .  A
C557        H564   1.084       .  S
C558        S560   1.806       .  S
S559        H562   1.403       .  S
S560        H561   1.406       .  S
C565        C566   1.406       .  A
C565        C570   1.417       .  A
C566        C567   1.392       .  A
C566        H575   1.049       .  S
C567        C568   1.400       .  A
C567        S571   1.791       .  S
C568        C569   1.409       .  A
C569        C570   1.393       .  A
C569        H576   1.084       .  S
C570        S572   1.803       .  S
S571        H574   1.406       .  S
S572        H573   1.407       .  S
C577        C582   1.409       .  A
C578        H587   1.083       .  S
C579        C580   1.424       .  A
C580        C581   1.414       .  A
C581        C582   1.380       .  A
C581        H588   1.072       .  S
C582        S584   1.811       .  S
S583        H586   1.406       .  S
S584        H585   1.394       .  S
C589        C590   1.413       .  A
C589        C594   1.414       .  A
C590        C591   1.389       .  A
C590        H599   1.054       .  S
C591        C592   1.403       .  A
C591        S595   1.807       .  S
C592        C593   1.405       .  A
C593        C594   1.412       .  A
C593        H600   1.083       .  S
C594        S596   1.807   1_455  S
S595        H598   1.403       .  S
S596        H597   1.405       .  S
C601        C602   1.411       .  A
C601        C606   1.408       .  A
C602        C603   1.416       .  A
C602        H611   1.082       .  S
C603        C604   1.427       .  A
C603        S607   1.799       .  S
C604        C605   1.410   1_556  A
C605        C606   1.386   1_554  A
C605        H612   1.082       .  S
C606        S608   1.799   1_556  S
S607        H610   1.404       .  S
S608        H609   1.407   1_554  S
C613        C614   1.411       .  A
C614        C615   1.394       .  A
C614        H623   1.085       .  S
C615        C616   1.421       .  A
C615        S619   1.814   1_556  S
C617        C618   1.401       .  A
C617        H624   1.085       .  S
C618        S620   1.796       .  S
S619        H622   1.399       .  S
S620        H621   1.400       .  S
C625        C626   1.398   1_556  A
C625        C630   1.420       .  A
C626        C627   1.392   1_554  A
C626        H635   1.081       .  S
C627        C628   1.413       .  A
C627        S631   1.789   1_556  S
C628        C629   1.410       .  A
C629        C630   1.404       .  A
C629        H636   1.072       .  S
C630        S632   1.803   1_455  S
S631        H634   1.406       .  S
S632        H633   1.390       .  S
C637        C642   1.417       .  A
C638        C639   1.421       .  A
C638        H647   1.073       .  S
C639        S643   1.801       .  S
C640        C641   1.404       .  A
C641        C642   1.401       .  A
C641        H648   1.059       .  S
C642        S644   1.804       .  S
S643        H646   1.406       .  S
S644        H645   1.408       .  S
C649        C650   1.407       .  A
C649        C654   1.411       .  A
C650        C651   1.396       .  A
C650        H659   1.081       .  S
C651        C652   1.416       .  A
C651        S655   1.803       .  S
C652        C653   1.406       .  A
C653        C654   1.393       .  A
C653        H660   1.080       .  S
C654        S656   1.797       .  S
S655        H658   1.407       .  S
S656        H657   1.405       .  S
C661        C662   1.402       .  A
C661        C666   1.390   1_556  A
C662        C663   1.407       .  A
C662        H671   1.069       .  S
C663        C664   1.417       .  A
C663        S667   1.790       .  S
C664        C665   1.415       .  A
C665        C666   1.399   1_556  A
C665        H672   1.076       .  S
C666        S668   1.792       .  S
S667        H670   1.407       .  S
S668        H669   1.406       .  S
C673        C674   1.415       .  A
C673       C1494   1.411   1_455  A
C674        C675   1.413   1_455  A
C674        H683   1.080       .  S
C675       C1492   1.417       .  A
C675        S679   1.807       .  S
C676       C1491   1.417       .  A
C676        C677   1.404       .  A
C677        C678   1.388       .  A
C677        H684   1.084       .  S
C678       C1489   1.411       .  A
C678        S680   1.801       .  S
S679        H682   1.407   1_655  S
S680        H681   1.401       .  S
C685        C686   1.402       .  A
C685        C690   1.421       .  A
C686        C687   1.406       .  A
C686        H695   1.082       .  S
C687        C688   1.427       .  A
C687        S691   1.798       .  S
C688        C689   1.406       .  A
C689        C690   1.405       .  A
C689        H696   1.079       .  S
S691        H694   1.407       .  S
S692        H693   1.395       .  S
C697        C698   1.400       .  A
C697        C702   1.419       .  A
C698        C699   1.404       .  A
C698        H707   1.079       .  S
C699        C700   1.426       .  A
C700        C701   1.412       .  A
C701        C702   1.417       .  A
C701        H708   1.082       .  S
C702        S704   1.796       .  S
S703        H706   1.408       .  S
S704        H705   1.407       .  S
C709        C710   1.400       .  A
C709       C1530   1.399       .  A
C710        C711   1.407       .  A
C710        H719   1.084       .  S
C711       C1528   1.434       .  A
C711        S715   1.804       .  S
C712       C1527   1.434       .  A
C712        C713   1.410   1_455  A
C713        C714   1.386       .  A
C713        H720   1.083       .  S
C714       C1525   1.399       .  A
C714        S716   1.797       .  S
S715        H718   1.396       .  S
S716        H717   1.406       .  S
C721        C722   1.408       .  A
C721        C726   1.400       .  A
C722        C723   1.408       .  A
C722        H731   1.082       .  S
C723        C724   1.424       .  A
C723        S727   1.799       .  S
C724        C725   1.401       .  A
C725        C726   1.375       .  A
C725        H732   1.085       .  S
C726        S728   1.787       .  S
S727        H730   1.402       .  S
S728        H729   1.406       .  S
C733        C734   1.421       .  A
C733       C1554   1.434       .  A
C734        C735   1.397       .  A
C734        H743   1.084       .  S
C735       C1552   1.397       .  A
C735        S739   1.790       .  S
C736       C1551   1.397   1_455  A
C736        C737   1.405       .  A
C737        C738   1.408       .  A
C737        H744   1.085       .  S
C738       C1549   1.434   1_455  A
C738        S740   1.808       .  S
S739        H742   1.406       .  S
S740        H741   1.401       .  S
C745        C746   1.402       .  A
C745        C750   1.416       .  A
C746        C747   1.395       .  A
C746        H755   1.081       .  S
C747        C748   1.419       .  A
C747        S751   1.799       .  S
C748        C749   1.394       .  A
C749        C750   1.374       .  A
C749        H756   1.086       .  S
C750        S752   1.799       .  S
S751        H754   1.405       .  S
S752        H753   1.405       .  S
C757        C758   1.415       .  A
C757       C1578   1.410       .  A
C758        C759   1.402       .  A
C758        H767   1.085       .  S
C759       C1576   1.418       .  A
C759        S763   1.805       .  S
C760       C1575   1.418   1_455  A
C760        C761   1.413       .  A
C761        C762   1.378       .  A
C761        H768   1.065       .  S
C762       C1573   1.410   1_455  A
C762        S764   1.816       .  S
S763        H766   1.387       .  S
S764        H765   1.399       .  S
C769        C770   1.407       .  A
C769        C774   1.409       .  A
C770        C771   1.412       .  A
C770        H779   1.082       .  S
C771        C772   1.422       .  A
C771        S775   1.792       .  S
C772        C773   1.394       .  A
C773        C774   1.399       .  A
C773        H780   1.078       .  S
C774        S776   1.761       .  S
S775        H778   1.407       .  S
S776        H777   1.408       .  S
C781        C782   1.418       .  A
C781        C786   1.432       .  A
C782        C783   1.383       .  A
C782        H791   1.056       .  S
C783        C784   1.395       .  A
C783        S787   1.810       .  S
C784        C785   1.407       .  A
C785        C786   1.417       .  A
C785        H792   1.083       .  S
S787        H790   1.404       .  S
S788        H789   1.403       .  S
C793        C794   1.413       .  A
C793        C798   1.412       .  A
C794        C795   1.400       .  A
C794        H803   1.084       .  S
C795        C796   1.419       .  A
C795        S799   1.805       .  S
C796        C797   1.409       .  A
C797        C798   1.394       .  A
C797        H804   1.084       .  S
C798        S800   1.793       .  S
S799        H802   1.406       .  S
S800        H801   1.403       .  S
C805        C806   1.407       .  A
C805        C810   1.426       .  A
C806        C807   1.395       .  A
C806        H815   1.083       .  S
C807        C808   1.417       .  A
C807        S811   1.803       .  S
C808        C809   1.416       .  A
C809        C810   1.421       .  A
C809        H816   1.081       .  S
C810        S812   1.802       .  S
S811        H814   1.407       .  S
S812        H813   1.405       .  S
C817        C818   1.373       .  D
C817        C831   1.507       .  S
C817        C854   1.555       .  S
C818       C1204   1.505       .  S
C818       C1213   1.524       .  S
C819        C820   1.375       .  D
C819       C1180   1.512       .  S
C819       C1192   1.500       .  S
C820        C833   1.567       .  S
C820        C856   1.580       .  S
O821       Cu829   2.183       .  S
O821       C1239   1.279       .  A
O822       Cu829   2.187       .  S
O822        C832   1.304       .  A
O823       Cu829   2.227       .  S
O823       C1241   1.300       .  A
O824       Cu829   2.033       .  S
O824        C834   1.278       .  A
O825       Cu830   2.056       .  S
O825        C834   1.288       .  A
O826      Cu1238   2.016   1_545  S
O826        C833   1.244       .  A
O827       Cu830   1.761       .  S
O827        C832   1.236       .  A
O828      Cu1238   1.939   1_545  S
O828        C831   1.225       .  A
Cu829      Cu830   2.147       .  S
Cu830      O1234   2.016       .  S
Cu830      O1236   1.939       .  S
C831       O1229   1.279   1_545  A
C833       O1231   1.300   1_545  A
C835        C836   1.355       .  D
C835        C869   1.563       .  S
C836       C1153   1.482       .  S
C836       C1165   1.487       .  S
C837        C838   1.360       .  D
C837       C1129   1.490       .  S
C837       C1141   1.528       .  S
C838        C867   1.517       .  S
C839        C840   1.372       .  D
C839        C868   1.549       .  S
C840       C1105   1.526       .  S
C840       C1117   1.488       .  S
C841        C842   1.382       .  D
C841        C870   1.549       .  S
C842       C1084   1.500       .  S
C842       C1096   1.530       .  S
O843       Cu851   2.032       .  S
O843        C853   1.252       .  A
O844       Cu851   2.065       .  S
O844        C854   1.287       .  A
O845       Cu851   1.916       .  S
O845        C855   1.222       .  A
O846       Cu851   1.790       .  S
O846        C856   1.237       .  A
O847       Cu852   2.259       .  S
O847        C856   1.307       .  A
O848       Cu852   2.217       .  S
O848        C855   1.283       .  A
O849       Cu852   2.091       .  S
O849        C854   1.283       .  A
O850       Cu852   2.260       .  S
O850        C853   1.304       .  A
Cu851      Cu852   2.140       .  S
O857       Cu865   2.205       .  S
O857        C867   1.284       .  A
O858       Cu865   2.215       .  S
O858       C1276   1.303       .  A
O859       Cu865   2.230       .  S
O859        C869   1.302       .  A
O860       Cu865   2.068       .  S
O860       C1278   1.280       .  A
O861      Cu1274   2.079   1_545  S
O861        C870   1.291       .  A
O862       Cu866   2.019       .  S
O862        C869   1.245       .  A
O863      Cu1274   1.746   1_545  S
O863        C868   1.229       .  A
O864       Cu866   1.911       .  S
O864        C867   1.218       .  A
Cu865      Cu866   2.127       .  S
Cu866      O1269   2.079       .  S
Cu866      O1271   1.746       .  S
C868       O1266   1.303       .  A
C870       O1268   1.280       .  A
C871        C872   1.379       .  D
C871        C890   1.586       .  S
C871        C907   1.544       .  S
C872       C1060   1.497       .  S
C872       C1072   1.528       .  S
C873        C874   1.389       .  D
C873       C1299   1.557       .  S
C873        C923   1.584       .  S
C874       C1036   1.524       .  S
C874       C1045   1.541       .  S
C875        C876   1.368       .  D
C875       C1318   1.534       .  S
C875        C922   1.555       .  S
C876       C1009   1.511       .  S
C876       C1021   1.522       .  S
C877        C878   1.367       .  D
C877       C1297   1.555       .  S
C877        C921   1.537       .  S
C878        C988   1.538       .  S
C878       C1000   1.494       .  S
O879       Cu887   2.186       .  S
O879        C889   1.295   1_545  A
O880       Cu887   2.179       .  S
O880        C890   1.289       .  A
O881       Cu887   2.154       .  S
O881        C891   1.289       .  A
O882       Cu887   2.147       .  S
O882        C892   1.293       .  A
O883       Cu888   1.877       .  S
O883        C892   1.244       .  A
O884       Cu888   1.875       .  S
O884        C891   1.247       .  A
O885       Cu888   1.981       .  S
O885        C890   1.257       .  A
O886       Cu888   1.959       .  S
O886        C889   1.259   1_545  A
Cu887      Cu888   2.272       .  S
C889       C1285   1.555       .  S
C891       C1281   1.557   1_545  S
C892        C893   1.515       .  S
C893        C894   1.361       .  D
C893        C909   1.552       .  S
C894        C961   1.496       .  S
C894        C976   1.490       .  S
C895        C896   1.377       .  D
C895       C1316   1.535       .  S
C895        C924   1.541       .  S
C896        C940   1.498       .  S
C896        C949   1.523       .  S
O897        C907   1.222       .  A
O898       Cu905   2.020   1_655  S
O898        C908   1.279       .  A
O899        C909   1.241       .  A
O900       Cu905   1.834   1_655  S
O900        C910   1.246       .  A
O901       Cu906   2.208       .  S
O901        C910   1.303       .  A
O902       Cu906   2.186   1_455  S
O903       Cu906   2.053       .  S
O903        C908   1.281       .  A
O904       Cu906   2.234   1_455  S
Cu905      Cu906   2.206   1_455  S
C908       C1303   1.535   1_545  S
C910       C1283   1.534   1_545  S
O911        C921   1.228       .  A
O912       Cu919   1.910   1_655  S
O912        C922   1.243       .  A
O913        C923   1.262       .  A
O914       Cu919   2.023   1_655  S
O914        C924   1.265       .  A
O915       Cu920   2.147       .  S
O915        C924   1.294       .  A
O916       Cu920   2.159   1_455  S
O917       Cu920   2.207       .  S
O917        C922   1.291       .  A
O918       Cu920   2.198   1_455  S
Cu919      Cu920   2.055   1_455  S
C925        C926   1.370       .  D
C925       C1012   1.528   1_554  S
C925       C1156   1.474       .  S
C926       C1057   1.498   1_554  S
C926       C1177   1.532       .  S
C927        C928   1.368       .  D
C927       C1033   1.506   1_554  S
C927       C1168   1.506       .  S
C928       C1069   1.506   1_554  S
C928       C1120   1.518       .  S
C929        C930   1.397   1_545  D
C929       C1456   1.543   1_544  S
C929       C1189   1.549       .  S
C930       C1432   1.505   1_554  S
C930       C1108   1.538   1_565  S
C931        C932   1.395       .  D
C931       C1393   1.501   1_545  S
C931       C1216   1.529       .  S
C932       C1360   1.537   1_545  S
C932       C1093   1.519       .  S
C933        C934   1.387       .  D
C933        C997   1.544       .  S
C933       C1144   1.501       .  S
C934        C973   1.510       .  S
C934       C1081   1.514       .  S
C935        C936   1.371       .  D
C935        C964   1.494       .  S
C935       C1201   1.509       .  S
C936        C937   1.521       .  S
C936       C1132   1.495       .  S
C937        C938   1.409       .  A
C937        C942   1.425       .  A
C938        C939   1.390       .  A
C938        H947   1.082       .  S
C939        C940   1.404       .  A
C939        S943   1.806       .  S
C940        C941   1.409       .  A
C941        C942   1.411       .  A
C941        H948   1.081       .  S
C942        S944   1.799       .  S
S943        H946   1.408       .  S
S944        H945   1.402       .  S
C949        C950   1.409       .  A
C949        C954   1.421       .  A
C950        C951   1.408       .  A
C950        H959   1.083       .  S
C951        C952   1.422       .  A
C951        S955   1.796       .  S
C952       C1340   1.537       .  S
C952        C953   1.417       .  A
C953        C954   1.411       .  A
C953       H1368   1.083       .  S
C954        S956   1.810       .  S
S955        H958   1.407       .  S
S956        H957   1.400       .  S
H960       C1361   1.083       .  S
C961        C962   1.410       .  A
C961        C966   1.417       .  A
C962        C963   1.392       .  A
C962        H971   1.085       .  S
C963        C964   1.409       .  A
C963        S967   1.795       .  S
C964        C965   1.410       .  A
C965        C966   1.392       .  A
C965        H972   1.084       .  S
C966        S968   1.806       .  S
S967        H970   1.403       .  S
S968        H969   1.406       .  S
C973        C974   1.406       .  A
C973        C978   1.417       .  A
C974        C975   1.392       .  A
C974        H983   1.049       .  S
C975        C976   1.400       .  A
C975        S979   1.791       .  S
C976        C977   1.409       .  A
C977        C978   1.393       .  A
C977        H984   1.084       .  S
C978        S980   1.803       .  S
S979        H982   1.406       .  S
S980        H981   1.407       .  S
C985       C1339   1.501       .  S
C985       C1394   1.414       .  A
C985        C990   1.409       .  A
C986       C1393   1.414       .  A
C986       C1395   1.422       .  A
C986        H995   1.083   1_565  S
C987       C1394   1.422       .  A
C987        C988   1.424       .  A
C987       S1399   1.801       .  S
C988        C989   1.414       .  A
C989        C990   1.380       .  A
C989        H996   1.072       .  S
C990        S992   1.811       .  S
S991       C1395   1.801       .  S
S991        H994   1.406       .  S
S992        H993   1.394       .  S
C997        C998   1.413       .  A
C997       C1002   1.414       .  A
C998        C999   1.389       .  A
C998       H1007   1.054       .  S
C999       C1000   1.403       .  A
C999       S1003   1.807       .  S
C1000      C1001   1.405       .  A
C1001      C1002   1.412       .  A
C1001      H1008   1.083       .  S
C1002      S1004   1.807       .  S
S1003      H1006   1.403       .  S
S1004      H1005   1.405       .  S
C1009      C1010   1.411       .  A
C1009      C1014   1.408       .  A
C1010      C1011   1.416       .  A
C1010      H1019   1.082       .  S
C1011      C1012   1.427       .  A
C1011      S1015   1.799       .  S
C1012      C1013   1.410   1_556  A
C1013      C1014   1.386   1_554  A
C1013      H1020   1.082       .  S
C1014      S1016   1.799   1_556  S
S1015      H1018   1.404       .  S
S1016      H1017   1.407   1_554  S
C1021      C1022   1.411       .  A
C1021      C1434   1.431       .  A
C1022      C1023   1.394       .  A
C1022      H1031   1.085       .  S
C1023      C1024   1.421       .  A
C1023      S1027   1.814   1_556  S
C1024      C1338   1.505   1_556  S
C1024      C1433   1.402       .  A
C1025      C1432   1.402   1_545  A
C1025      C1026   1.401       .  A
C1025      H1032   1.085       .  S
C1026      C1429   1.431   1_545  A
C1026      S1028   1.796       .  S
S1027      H1030   1.399       .  S
S1028      H1029   1.400       .  S
C1033      C1034   1.398   1_556  A
C1033      C1038   1.420       .  A
C1034      C1035   1.392   1_554  A
C1034      H1043   1.081       .  S
C1035      C1036   1.413       .  A
C1035      S1039   1.789   1_556  S
C1036      C1037   1.410       .  A
C1037      C1038   1.404       .  A
C1037      H1044   1.072       .  S
C1038      S1040   1.803       .  S
S1039      H1042   1.406       .  S
S1040      H1041   1.390       .  S
C1045      C1454   1.421       .  A
C1045      C1050   1.417       .  A
C1046      C1453   1.421   1_545  A
C1046      C1047   1.421       .  A
C1046      H1055   1.073       .  S
C1047      C1456   1.415   1_545  A
C1047      S1051   1.801       .  S
C1048      C1337   1.543   1_556  S
C1048      C1455   1.415       .  A
C1048      C1049   1.404       .  A
C1049      C1050   1.401       .  A
C1049      H1056   1.059       .  S
C1050      S1052   1.804       .  S
S1051      H1054   1.406       .  S
S1052      H1053   1.408       .  S
C1057      C1058   1.407       .  A
C1057      C1062   1.411       .  A
C1058      C1059   1.396       .  A
C1058      H1067   1.081       .  S
C1059      C1060   1.416       .  A
C1059      S1063   1.803       .  S
C1060      C1061   1.406       .  A
C1061      C1062   1.393       .  A
C1061      H1068   1.080       .  S
C1062      S1064   1.797       .  S
S1063      H1066   1.407       .  S
S1064      H1065   1.405       .  S
C1069      C1070   1.402       .  A
C1069      C1074   1.390   1_556  A
C1070      C1071   1.407       .  A
C1070      H1079   1.069       .  S
C1071      C1072   1.417       .  A
C1071      S1075   1.790       .  S
C1072      C1073   1.415       .  A
C1073      C1074   1.399   1_556  A
C1073      H1080   1.076       .  S
C1074      S1076   1.792       .  S
S1075      H1078   1.407       .  S
S1076      H1077   1.406       .  S
C1081      C1082   1.415       .  A
C1082      C1083   1.413       .  A
C1082      H1091   1.080       .  S
C1083      S1087   1.807       .  S
C1084      C1085   1.404       .  A
C1085      C1086   1.388       .  A
C1085      H1092   1.084       .  S
C1086      S1088   1.801       .  S
S1087      H1090   1.407       .  S
S1088      H1089   1.401       .  S
C1093      C1094   1.402       .  A
C1093      C1098   1.421   1_545  A
C1094      C1095   1.406       .  A
C1094      H1103   1.082       .  S
C1095      C1096   1.427       .  A
C1095      S1099   1.798       .  S
C1096      C1097   1.406       .  A
C1097      C1098   1.405   1_545  A
C1097      H1104   1.079       .  S
C1098      S1508   1.798       .  S
S1099      H1102   1.407       .  S
S1100      C1506   1.798       .  S
S1100      H1101   1.395       .  S
C1105      C1106   1.400       .  A
C1105      C1110   1.419       .  A
C1106      C1107   1.404   1_545  A
C1106      H1115   1.079       .  S
C1107      C1108   1.426   1_565  A
C1107      S1519   1.797       .  S
C1108      C1109   1.412       .  A
C1109      C1110   1.417       .  A
C1109      H1116   1.082       .  S
C1110      S1112   1.796       .  S
S1111      C1515   1.797       .  S
S1111      H1114   1.408       .  S
S1112      H1113   1.407       .  S
C1117      C1118   1.400       .  A
C1118      C1119   1.407   1_655  A
C1118      H1127   1.084       .  S
C1119      S1123   1.804       .  S
C1120      C1121   1.410       .  A
C1121      C1122   1.386       .  A
C1121      H1128   1.083       .  S
C1122      S1124   1.797       .  S
S1123      H1126   1.396       .  S
S1124      H1125   1.406       .  S
C1129      C1130   1.408       .  A
C1129      C1134   1.400       .  A
C1130      C1131   1.408       .  A
C1130      H1139   1.082       .  S
C1131      C1132   1.424       .  A
C1131      S1135   1.799       .  S
C1132      C1133   1.401       .  A
C1133      C1134   1.375       .  A
C1133      H1140   1.085       .  S
C1134      S1136   1.787       .  S
S1135      H1138   1.402       .  S
S1136      H1137   1.406       .  S
C1141      C1142   1.421       .  A
C1142      C1143   1.397       .  A
C1142      H1151   1.084       .  S
C1143      S1147   1.790       .  S
C1144      C1145   1.405       .  A
C1145      C1146   1.408       .  A
C1145      H1152   1.085       .  S
C1146      S1148   1.808       .  S
S1147      H1150   1.406       .  S
S1148      H1149   1.401       .  S
C1153      C1154   1.402       .  A
C1153      C1158   1.416       .  A
C1154      C1155   1.395       .  A
C1154      H1163   1.081       .  S
C1155      C1156   1.419       .  A
C1155      S1159   1.799       .  S
C1156      C1157   1.394       .  A
C1157      C1158   1.374       .  A
C1157      H1164   1.086       .  S
C1158      S1160   1.799       .  S
S1159      H1162   1.405       .  S
S1160      H1161   1.405       .  S
C1165      C1166   1.415       .  A
C1166      C1167   1.402       .  A
C1166      H1175   1.085       .  S
C1167      S1171   1.805       .  S
C1168      C1169   1.413       .  A
C1169      C1170   1.378       .  A
C1169      H1176   1.065       .  S
C1170      S1172   1.816       .  S
S1171      H1174   1.387       .  S
S1172      H1173   1.399       .  S
C1177      C1178   1.407       .  A
C1177      C1182   1.409       .  A
C1178      C1179   1.412       .  A
C1178      H1187   1.082       .  S
C1179      C1180   1.422       .  A
C1179      S1183   1.792       .  S
C1180      C1181   1.394       .  A
C1181      C1182   1.399       .  A
C1181      H1188   1.078       .  S
C1182      S1184   1.761       .  S
S1183      H1186   1.407       .  S
S1184      H1185   1.408       .  S
C1189      C1190   1.418       .  A
C1189      C1194   1.432       .  A
C1190      C1191   1.383       .  A
C1190      H1199   1.056       .  S
C1191      C1192   1.395       .  A
C1191      S1195   1.810       .  S
C1192      C1193   1.407       .  A
C1193      C1194   1.417       .  A
C1193      H1200   1.083       .  S
C1194      S1604   1.798   1_545  S
S1195      H1198   1.404       .  S
S1196      C1602   1.798       .  S
S1196      H1197   1.403       .  S
C1201      C1202   1.413       .  A
C1201      C1206   1.412       .  A
C1202      C1203   1.400       .  A
C1202      H1211   1.084       .  S
C1203      C1204   1.419       .  A
C1203      S1207   1.805       .  S
C1204      C1205   1.409       .  A
C1205      C1206   1.394       .  A
C1205      H1212   1.084       .  S
C1206      S1208   1.793       .  S
S1207      H1210   1.406       .  S
S1208      H1209   1.403       .  S
C1213      C1214   1.407       .  A
C1213      C1218   1.426       .  A
C1214      C1215   1.395       .  A
C1214      H1223   1.083       .  S
C1215      C1216   1.417       .  A
C1215      S1219   1.803       .  S
C1216      C1217   1.416       .  A
C1217      C1218   1.421       .  A
C1217      H1224   1.081       .  S
C1218      S1220   1.802       .  S
S1219      H1222   1.407       .  S
S1220      H1221   1.405       .  S
C1225      C1226   1.373       .  D
C1225      C1239   1.507       .  S
C1225      C1262   1.555       .  S
C1226      C1612   1.505       .  S
C1226      C1621   1.524       .  S
C1227      C1228   1.375       .  D
C1227      C1588   1.512       .  S
C1227      C1600   1.500       .  S
C1228      C1241   1.567       .  S
C1228      C1264   1.580       .  S
O1229     Cu1237   2.183       .  S
O1230     Cu1237   2.187       .  S
O1230      C1240   1.304       .  A
O1231     Cu1237   2.227       .  S
O1232     Cu1237   2.033       .  S
O1232      C1242   1.278       .  A
O1233     Cu1238   2.056       .  S
O1233      C1242   1.288       .  A
O1234      C1241   1.244       .  A
O1235     Cu1238   1.761       .  S
O1235      C1240   1.236       .  A
O1236      C1239   1.225       .  A
Cu1237    Cu1238   2.147       .  S
C1243      C1244   1.355       .  D
C1243      C1277   1.563       .  S
C1244      C1561   1.482       .  S
C1244      C1573   1.487       .  S
C1245      C1246   1.360       .  D
C1245      C1537   1.490       .  S
C1245      C1549   1.528       .  S
C1246      C1275   1.517       .  S
C1247      C1248   1.372       .  D
C1247      C1276   1.549       .  S
C1248      C1513   1.526       .  S
C1248      C1525   1.488       .  S
C1249      C1250   1.382       .  D
C1249      C1278   1.549       .  S
C1250      C1492   1.500       .  S
C1250      C1504   1.530       .  S
O1251     Cu1259   2.032       .  S
O1251      C1261   1.252       .  A
O1252     Cu1259   2.065       .  S
O1252      C1262   1.287       .  A
O1253     Cu1259   1.916       .  S
O1253      C1263   1.222       .  A
O1254     Cu1259   1.790       .  S
O1254      C1264   1.237       .  A
O1255     Cu1260   2.259       .  S
O1255      C1264   1.307       .  A
O1256     Cu1260   2.217       .  S
O1256      C1263   1.283       .  A
O1257     Cu1260   2.091       .  S
O1257      C1262   1.283       .  A
O1258     Cu1260   2.260       .  S
O1258      C1261   1.304       .  A
Cu1259    Cu1260   2.140       .  S
O1265     Cu1273   2.205       .  S
O1265      C1275   1.284       .  A
O1266     Cu1273   2.215   1_545  S
O1267     Cu1273   2.230       .  S
O1267      C1277   1.302       .  A
O1268     Cu1273   2.068   1_545  S
O1269      C1278   1.291       .  A
O1270     Cu1274   2.019       .  S
O1270      C1277   1.245       .  A
O1271      C1276   1.229       .  A
O1272     Cu1274   1.911       .  S
O1272      C1275   1.218       .  A
Cu1273    Cu1274   2.127       .  S
C1279      C1280   1.379       .  D
C1279      C1298   1.586       .  S
C1279      C1315   1.544       .  S
C1280      C1468   1.497       .  S
C1280      C1480   1.528       .  S
C1281      C1282   1.389       .  D
C1281      C1331   1.584       .  S
C1282      C1444   1.524       .  S
C1282      C1453   1.541       .  S
C1283      C1284   1.368       .  D
C1283      C1330   1.555       .  S
C1284      C1417   1.511       .  S
C1284      C1429   1.522       .  S
C1285      C1286   1.367       .  D
C1285      C1329   1.537       .  S
C1286      C1396   1.538       .  S
C1286      C1408   1.494       .  S
O1287     Cu1295   2.186       .  S
O1287      C1297   1.295       .  A
O1288     Cu1295   2.179       .  S
O1288      C1298   1.289       .  A
O1289     Cu1295   2.154       .  S
O1289      C1299   1.289       .  A
O1290     Cu1295   2.147       .  S
O1290      C1300   1.293       .  A
O1291     Cu1296   1.877       .  S
O1291      C1300   1.244       .  A
O1292     Cu1296   1.875       .  S
O1292      C1299   1.247       .  A
O1293     Cu1296   1.980       .  S
O1293      C1298   1.257       .  A
O1294     Cu1296   1.959       .  S
O1294      C1297   1.259       .  A
Cu1295    Cu1296   2.272       .  S
C1300      C1301   1.515       .  S
C1301      C1302   1.361       .  D
C1301      C1317   1.552       .  S
C1302      C1369   1.496       .  S
C1302      C1384   1.490       .  S
C1303      C1304   1.377       .  D
C1303      C1332   1.541       .  S
C1304      C1348   1.498       .  S
C1304      C1357   1.523       .  S
O1305      C1315   1.222       .  A
O1306     Cu1313   2.020   1_655  S
O1306      C1316   1.279       .  A
O1307      C1317   1.241       .  A
O1308     Cu1313   1.834   1_655  S
O1308      C1318   1.246       .  A
O1309     Cu1314   2.208       .  S
O1309      C1318   1.303       .  A
O1310     Cu1314   2.186   1_455  S
O1311     Cu1314   2.053       .  S
O1311      C1316   1.281       .  A
O1312     Cu1314   2.234   1_455  S
Cu1313    Cu1314   2.206   1_455  S
O1319      C1329   1.228       .  A
O1320     Cu1327   1.910   1_655  S
O1320      C1330   1.243       .  A
O1321      C1331   1.262       .  A
O1322     Cu1327   2.023   1_655  S
O1322      C1332   1.265       .  A
O1323     Cu1328   2.147       .  S
O1323      C1332   1.294       .  A
O1324     Cu1328   2.159   1_455  S
O1325     Cu1328   2.207       .  S
O1325      C1330   1.291       .  A
O1326     Cu1328   2.198   1_455  S
Cu1327    Cu1328   2.055   1_455  S
C1333      C1334   1.370       .  D
C1333      C1420   1.528   1_554  S
C1333      C1564   1.474       .  S
C1334      C1465   1.498   1_554  S
C1334      C1585   1.532       .  S
C1335      C1336   1.368       .  D
C1335      C1441   1.506   1_554  S
C1335      C1576   1.506       .  S
C1336      C1477   1.506   1_554  S
C1336      C1528   1.518       .  S
C1337      C1338   1.397       .  D
C1337      C1597   1.549       .  S
C1338      C1516   1.538       .  S
C1339      C1340   1.395       .  D
C1339      C1624   1.529       .  S
C1340      C1501   1.519       .  S
C1341      C1342   1.387       .  D
C1341      C1405   1.544       .  S
C1341      C1552   1.501       .  S
C1342      C1381   1.510       .  S
C1342      C1489   1.514       .  S
C1343      C1344   1.371       .  D
C1343      C1372   1.494       .  S
C1343      C1609   1.509       .  S
C1344      C1345   1.521       .  S
C1344      C1540   1.495       .  S
C1345      C1346   1.409       .  A
C1345      C1350   1.425       .  A
C1346      C1347   1.390       .  A
C1346      H1355   1.082       .  S
C1347      C1348   1.404       .  A
C1347      S1351   1.806       .  S
C1348      C1349   1.409       .  A
C1349      C1350   1.411       .  A
C1349      H1356   1.081       .  S
C1350      S1352   1.799       .  S
S1351      H1354   1.408       .  S
S1352      H1353   1.402       .  S
C1357      C1358   1.409       .  A
C1357      C1362   1.421   1_565  A
C1358      C1359   1.408       .  A
C1358      H1367   1.083       .  S
C1359      C1360   1.422       .  A
C1359      S1363   1.796       .  S
C1360      C1361   1.417   1_565  A
C1361      C1362   1.411       .  A
C1362      S1364   1.810       .  S
S1363      H1366   1.407       .  S
S1364      H1365   1.400       .  S
C1369      C1370   1.410       .  A
C1369      C1374   1.417       .  A
C1370      C1371   1.392       .  A
C1370      H1379   1.085       .  S
C1371      C1372   1.409       .  A
C1371      S1375   1.795       .  S
C1372      C1373   1.410       .  A
C1373      C1374   1.392       .  A
C1373      H1380   1.084       .  S
C1374      S1376   1.806       .  S
S1375      H1378   1.403       .  S
S1376      H1377   1.406       .  S
C1381      C1382   1.406       .  A
C1381      C1386   1.417       .  A
C1382      C1383   1.392       .  A
C1382      H1391   1.049       .  S
C1383      C1384   1.400       .  A
C1383      S1387   1.791       .  S
C1384      C1385   1.409       .  A
C1385      C1386   1.393       .  A
C1385      H1392   1.084       .  S
C1386      S1388   1.803       .  S
S1387      H1390   1.406       .  S
S1388      H1389   1.407       .  S
C1393      C1398   1.409       .  A
C1394      H1403   1.083       .  S
C1395      C1396   1.424       .  A
C1396      C1397   1.414       .  A
C1397      C1398   1.380       .  A
C1397      H1404   1.072       .  S
C1398      S1400   1.811       .  S
S1399      H1402   1.406       .  S
S1400      H1401   1.394       .  S
C1405      C1406   1.413       .  A
C1405      C1410   1.414       .  A
C1406      C1407   1.389       .  A
C1406      H1415   1.054       .  S
C1407      C1408   1.403       .  A
C1407      S1411   1.807       .  S
C1408      C1409   1.405       .  A
C1409      C1410   1.412       .  A
C1409      H1416   1.083       .  S
C1410      S1412   1.807       .  S
S1411      H1414   1.403       .  S
S1412      H1413   1.405       .  S
C1417      C1418   1.411       .  A
C1417      C1422   1.408       .  A
C1418      C1419   1.416       .  A
C1418      H1427   1.082       .  S
C1419      C1420   1.427       .  A
C1419      S1423   1.799       .  S
C1420      C1421   1.410   1_556  A
C1421      C1422   1.386   1_554  A
C1421      H1428   1.082       .  S
C1422      S1424   1.799   1_556  S
S1423      H1426   1.404       .  S
S1424      H1425   1.407   1_554  S
C1429      C1430   1.411       .  A
C1430      C1431   1.394       .  A
C1430      H1439   1.085       .  S
C1431      C1432   1.421       .  A
C1431      S1435   1.814   1_556  S
C1433      C1434   1.401       .  A
C1433      H1440   1.085       .  S
C1434      S1436   1.796       .  S
S1435      H1438   1.399       .  S
S1436      H1437   1.400       .  S
C1441      C1442   1.398   1_556  A
C1441      C1446   1.420       .  A
C1442      C1443   1.392   1_554  A
C1442      H1451   1.081       .  S
C1443      C1444   1.413       .  A
C1443      S1447   1.789   1_556  S
C1444      C1445   1.410       .  A
C1445      C1446   1.404       .  A
C1445      H1452   1.072       .  S
C1446      S1448   1.803       .  S
S1447      H1450   1.406       .  S
S1448      H1449   1.390       .  S
C1453      C1458   1.417       .  A
C1454      C1455   1.421       .  A
C1454      H1463   1.073       .  S
C1455      S1459   1.801       .  S
C1456      C1457   1.404       .  A
C1457      C1458   1.401       .  A
C1457      H1464   1.059       .  S
C1458      S1460   1.804       .  S
S1459      H1462   1.406       .  S
S1460      H1461   1.408       .  S
C1465      C1466   1.407       .  A
C1465      C1470   1.411       .  A
C1466      C1467   1.396       .  A
C1466      H1475   1.081       .  S
C1467      C1468   1.416       .  A
C1467      S1471   1.803       .  S
C1468      C1469   1.406       .  A
C1469      C1470   1.393       .  A
C1469      H1476   1.080       .  S
C1470      S1472   1.797       .  S
S1471      H1474   1.407       .  S
S1472      H1473   1.405       .  S
C1477      C1478   1.402       .  A
C1477      C1482   1.390   1_556  A
C1478      C1479   1.407       .  A
C1478      H1487   1.069       .  S
C1479      C1480   1.417       .  A
C1479      S1483   1.790       .  S
C1480      C1481   1.415       .  A
C1481      C1482   1.399   1_556  A
C1481      H1488   1.076       .  S
C1482      S1484   1.792       .  S
S1483      H1486   1.407       .  S
S1484      H1485   1.406       .  S
C1489      C1490   1.415       .  A
C1490      C1491   1.413       .  A
C1490      H1499   1.080       .  S
C1491      S1495   1.807       .  S
C1492      C1493   1.404       .  A
C1493      C1494   1.388       .  A
C1493      H1500   1.084       .  S
C1494      S1496   1.801       .  S
S1495      H1498   1.407       .  S
S1496      H1497   1.401       .  S
C1501      C1502   1.402       .  A
C1501      C1506   1.421       .  A
C1502      C1503   1.406       .  A
C1502      H1511   1.082       .  S
C1503      C1504   1.427       .  A
C1503      S1507   1.798       .  S
C1504      C1505   1.406       .  A
C1505      C1506   1.405       .  A
C1505      H1512   1.079       .  S
S1507      H1510   1.407       .  S
S1508      H1509   1.395       .  S
C1513      C1514   1.400       .  A
C1513      C1518   1.419       .  A
C1514      C1515   1.404       .  A
C1514      H1523   1.079       .  S
C1515      C1516   1.426       .  A
C1516      C1517   1.412       .  A
C1517      C1518   1.417       .  A
C1517      H1524   1.082       .  S
C1518      S1520   1.796       .  S
S1519      H1522   1.408       .  S
S1520      H1521   1.407       .  S
C1525      C1526   1.400       .  A
C1526      C1527   1.407   1_655  A
C1526      H1535   1.084       .  S
C1527      S1531   1.804       .  S
C1528      C1529   1.410       .  A
C1529      C1530   1.386       .  A
C1529      H1536   1.083       .  S
C1530      S1532   1.797       .  S
S1531      H1534   1.396       .  S
S1532      H1533   1.406       .  S
C1537      C1538   1.408       .  A
C1537      C1542   1.400       .  A
C1538      C1539   1.408       .  A
C1538      H1547   1.082       .  S
C1539      C1540   1.424       .  A
C1539      S1543   1.799       .  S
C1540      C1541   1.401       .  A
C1541      C1542   1.375       .  A
C1541      H1548   1.085       .  S
C1542      S1544   1.787       .  S
S1543      H1546   1.402       .  S
S1544      H1545   1.406       .  S
C1549      C1550   1.421       .  A
C1550      C1551   1.397       .  A
C1550      H1559   1.084       .  S
C1551      S1555   1.790       .  S
C1552      C1553   1.405       .  A
C1553      C1554   1.408       .  A
C1553      H1560   1.085       .  S
C1554      S1556   1.808       .  S
S1555      H1558   1.406       .  S
S1556      H1557   1.401       .  S
C1561      C1562   1.402       .  A
C1561      C1566   1.416       .  A
C1562      C1563   1.395       .  A
C1562      H1571   1.081       .  S
C1563      C1564   1.419       .  A
C1563      S1567   1.799       .  S
C1564      C1565   1.394       .  A
C1565      C1566   1.374       .  A
C1565      H1572   1.086       .  S
C1566      S1568   1.799       .  S
S1567      H1570   1.405       .  S
S1568      H1569   1.405       .  S
C1573      C1574   1.415       .  A
C1574      C1575   1.402       .  A
C1574      H1583   1.085       .  S
C1575      S1579   1.805       .  S
C1576      C1577   1.413       .  A
C1577      C1578   1.378       .  A
C1577      H1584   1.065       .  S
C1578      S1580   1.816       .  S
S1579      H1582   1.387       .  S
S1580      H1581   1.399       .  S
C1585      C1586   1.407       .  A
C1585      C1590   1.409       .  A
C1586      C1587   1.412       .  A
C1586      H1595   1.082       .  S
C1587      C1588   1.422       .  A
C1587      S1591   1.792       .  S
C1588      C1589   1.394       .  A
C1589      C1590   1.399       .  A
C1589      H1596   1.078       .  S
C1590      S1592   1.761       .  S
S1591      H1594   1.407       .  S
S1592      H1593   1.408       .  S
C1597      C1598   1.418       .  A
C1597      C1602   1.432       .  A
C1598      C1599   1.383       .  A
C1598      H1607   1.056       .  S
C1599      C1600   1.395       .  A
C1599      S1603   1.810       .  S
C1600      C1601   1.407       .  A
C1601      C1602   1.417       .  A
C1601      H1608   1.083       .  S
S1603      H1606   1.404       .  S
S1604      H1605   1.403       .  S
C1609      C1610   1.413       .  A
C1609      C1614   1.412       .  A
C1610      C1611   1.400       .  A
C1610      H1619   1.084       .  S
C1611      C1612   1.419       .  A
C1611      S1615   1.805       .  S
C1612      C1613   1.409       .  A
C1613      C1614   1.394       .  A
C1613      H1620   1.084       .  S
C1614      S1616   1.793       .  S
S1615      H1618   1.406       .  S
S1616      H1617   1.403       .  S
C1621      C1622   1.407       .  A
C1621      C1626   1.426       .  A
C1622      C1623   1.395       .  A
C1622      H1631   1.083       .  S
C1623      C1624   1.417       .  A
C1623      S1627   1.803       .  S
C1624      C1625   1.416       .  A
C1625      C1626   1.421       .  A
C1625      H1632   1.081       .  S
C1626      S1628   1.802       .  S
S1627      H1630   1.407       .  S
S1628      H1629   1.405       .  S
