geometry optimzed in LAMMPS
_audit_creation_date              2020-11-30 
_audit_creation_method            'lammps2cif' 
_symmetry_space_group_name_H-M    'P1' 
_symmetry_Int_Tables_number       1 
_symmetry_cell_setting            triclinic 
loop_ 
_symmetry_equiv_pos_as_xyz 
  x,y,z 
_cell_length_a                    37.6832998 
_cell_length_b                    37.67411662904362 
_cell_length_c                    42.34803319121935 
_cell_angle_alpha                 90.37377531614241 
_cell_angle_beta                  90.14410455283323 
_cell_angle_gamma                 120.02486734126016 
loop_ 
_atom_site_label 
_atom_site_type_symbol 
_atom_site_fract_x 
_atom_site_fract_y 
_atom_site_fract_z 
_atom_site_charge 
C1          C  0.20549904  0.22184890  0.15122423     0.79700
N2          N  0.20391605  0.22221218  0.11912466    -0.78600
C3          C  0.23653296  0.25083209  0.10244250     0.82100
N4          N  0.27117327  0.27831648  0.11829498    -0.78600
C5          C  0.27326635  0.27779402  0.15032030     0.82200
N6          N  0.24003588  0.24987527  0.16650192    -0.80300
C7          C  0.20732531  0.22661748  0.41572970     0.79700
N8          N  0.20719081  0.22635507  0.44788884    -0.78600
C9          C  0.24036984  0.25501007  0.46461924     0.82100
N10         N  0.27373537  0.28376649  0.44872123    -0.78600
C11         C  0.27443499  0.28400736  0.41663677     0.82200
N12         N  0.24118118  0.25512967  0.40044517    -0.80300
C13         C  0.23036526  0.44539441  0.14925664     0.79700
N14         N  0.20137717  0.44968100  0.16507197    -0.78600
C15         C  0.17092602  0.45146482  0.14915552     0.82100
N16         N  0.17013515  0.44952390  0.11712357    -0.78600
C17         C  0.19925086  0.44587000  0.10083147     0.82200
N18         N  0.22938536  0.44375701  0.11713799    -0.80300
C19         C  0.23262786  0.44731124  0.41407648     0.79700
N20         N  0.20325023  0.45188736  0.39923252    -0.78600
C21         C  0.17356407  0.45411313  0.41583194     0.82100
N22         N  0.17354299  0.45139112  0.44778010    -0.78600
C23         C  0.20240553  0.44615387  0.46316779     0.82200
N24         N  0.23223267  0.44458072  0.44610480    -0.80300
C25         C  0.51632846  0.25279655  0.15016796     0.79700
N26         N  0.51050181  0.21828682  0.16465968    -0.78600
C27         C  0.50680624  0.18583287  0.14774079     0.82100
N28         N  0.50839161  0.18796345  0.11563923    -0.78600
C29         C  0.51421663  0.22247697  0.10063513     0.82200
N30         N  0.51750567  0.25451102  0.11810343    -0.80300
C31         C  0.51312319  0.25204214  0.41371652     0.79700
N32         N  0.50721649  0.21737485  0.39889799    -0.78600
C33         C  0.50322627  0.18492222  0.41557105     0.82100
N34         N  0.50418682  0.18692055  0.44753094    -0.78600
C35         C  0.50900375  0.22077910  0.46303314     0.82200
N36         N  0.51354592  0.25351253  0.44597918    -0.80300
O37         O  0.37868454  0.98855065  0.24572230    -0.88700
C38         C  0.08923441  0.10183603  0.33101866     1.11300
O39         O  0.43678833  0.46714126  0.28178014    -1.36500
O40         O  0.05940785  0.10501639  0.24970088    -0.90200
O41         O  0.35338940  0.42057739  0.24560814    -0.90900
O42         O  0.44373644  0.42953177  0.21484193    -0.79700
O43         O  0.46952583  0.04835093  0.25319469    -1.01800
C44         C  0.06306100  0.48592786  0.22459578     1.21400
O45         O  0.48999788  0.43564729  0.28180227    -1.36700
Mn46       Mn  0.48239677  0.47408552  0.31668401     1.82100
O47         O  0.02906194  0.48113207  0.21578558    -0.78800
O48         O  0.10142050  0.07920630  0.24892908    -0.88200
C49         C  0.06172967  0.48382502  0.34017234     1.12400
C50         C  0.09038213  0.10409384  0.23901094     1.07200
O51         O  0.44218611  0.42808534  0.34836996    -0.79700
O52         O  0.02136124  0.02042098  0.28305510    -1.33400
O53         O  0.40992278  0.38789152  0.31060082    -0.98900
C54         C  0.50434310  0.36705048  0.23527878     1.05900
Mn55       Mn  0.08276115  0.03339481  0.28351202     1.48600
O56         O  0.46846208  0.35561555  0.24557068    -0.88100
Mn57       Mn  0.38367805  0.40718331  0.28099411     1.49600
O58         O  0.37762068  0.98764110  0.31665857    -0.92000
C59         C  0.47334052  0.04492704  0.22490962     1.19100
C60         C  0.35292549  0.45188345  0.32661244     1.11100
Mn61       Mn  0.48309702  0.47488014  0.24776949     1.81000
O62         O  0.06767842  0.48706872  0.31191396    -0.97200
Mn63       Mn  0.42328528  0.01530909  0.28196553     1.49300
C64         C  0.35395998  0.45219910  0.23477966     1.07700
Mn65       Mn  0.04969831  0.44195492  0.28192988     1.49900
C66         C  0.50406302  0.36672706  0.32762865     1.10600
O67         O  0.41071634  0.38850675  0.25153360    -1.03000
O68         O  0.10047520  0.07740523  0.32016389    -0.92600
C69         C  0.41461978  0.39550337  0.22331657     1.20600
O70         O  0.06984767  0.48843384  0.25291502    -1.03300
O71         O  0.05846850  0.10330894  0.32011821    -0.90700
O72         O  0.03610564  0.39742475  0.31673879    -0.90300
O73         O  0.35255249  0.42005307  0.31609662    -0.90400
Mn74       Mn  0.01476199  0.07374787  0.28392661     1.47900
O75         O  0.02807384  0.47938872  0.34947129    -0.78800
C76         C  0.41314936  0.39419227  0.33894574     1.14900
O77         O  0.47811320  0.01566343  0.21602865    -0.77600
O78         O  0.47597574  0.01349819  0.34938705    -0.77200
Mn79       Mn  0.44180814  0.37406459  0.28123857     1.51100
O80         O  0.03643551  0.39811417  0.24632878    -0.89500
O81         O  0.46815546  0.04657259  0.31250904    -0.97100
O82         O  0.46817506  0.35558304  0.31722129    -0.92100
C83         C  0.47040615  0.04225819  0.34077279     1.12700
C84         C  0.46353661  0.13248510  0.37501247    -0.20900
C85         C  0.49333919  0.14624679  0.39886983    -0.07400
C86         C  0.01262017  0.12317124  0.40569200     0.13400
C87         C  0.00229287  0.08752354  0.38782282    -0.20900
C88         C  0.47341817  0.07454117  0.36304694    -0.07400
C89         C  0.45305295  0.09704949  0.35721283     0.13400
C90         C  0.41945185  0.08395354  0.33288193    -0.24300
H91         H  0.44811796  0.14969619  0.37031995     0.14700
H92         H  0.01858474  0.07108936  0.39208078     0.14800
C93         C  0.04592114  0.13736348  0.43039187    -0.24200
H94         H  0.40744744  0.10550062  0.33174694     0.05000
H95         H  0.39344574  0.05370876  0.33916829     0.08200
H96         H  0.43068129  0.08281177  0.30909450     0.08200
H97         H  0.03328477  0.13727028  0.45404377     0.08200
H98         H  0.07091800  0.16881203  0.42486630     0.08200
H99         H  0.05940478  0.11706168  0.43136527     0.05000
C100        C  0.48994535  0.30215557  0.40123302    -0.20900
C101        C  0.51576094  0.28623971  0.39430308    -0.07400
C102        C  0.04084408  0.30053051  0.36714115     0.13400
C103        C  0.03753304  0.32812879  0.34672927    -0.20900
C104        C  0.50933642  0.34153023  0.35231379    -0.07400
C105        C  0.48634469  0.32946490  0.38055769     0.13400
C106        C  0.45828419  0.34557718  0.38912902    -0.24300
H107        H  0.47113182  0.29177782  0.42220419     0.14700
H108        H  0.05599360  0.33809770  0.32555364     0.14800
C109        C  0.07173804  0.28737520  0.35974124    -0.24200
H110        H  0.44431318  0.33489444  0.41272532     0.05000
H111        H  0.43313679  0.33457137  0.37159707     0.08200
H112        H  0.47566136  0.37961960  0.38951195     0.08200
H113        H  0.05603839  0.25415551  0.35404480     0.08200
H114        H  0.09255268  0.29402185  0.38030348     0.08200
H115        H  0.09082987  0.30391883  0.33907046     0.05000
C116        C  0.96774449  0.13508342  0.18893513    -0.20900
C117        C  0.49662868  0.14731442  0.16469307    -0.07400
C118        C  0.51639785  0.12432878  0.15914852     0.13400
C119        C  0.50630706  0.08957488  0.17784947    -0.20900
C120        C  0.47806553  0.07802099  0.20284092    -0.07400
C121        C  0.95876803  0.10159239  0.20833391     0.13400
C122        C  0.92918986  0.09273243  0.23497227    -0.24300
H123        H  0.95269981  0.15274311  0.19331152     0.14700
H124        H  0.52227341  0.07271193  0.17403454     0.14800
C125        C  0.54989128  0.13775736  0.13500530    -0.24200
H126        H  0.91583040  0.11316094  0.23467957     0.05000
H127        H  0.94545248  0.09793718  0.25778368     0.08200
H128        H  0.90351471  0.06088958  0.23317864     0.08200
H129        H  0.57472978  0.16947613  0.14050337     0.08200
H130        H  0.53740474  0.13677884  0.11106171     0.08200
H131        H  0.56355219  0.11758821  0.13481687     0.05000
C132        C  0.48913290  0.29924608  0.16296147    -0.20900
C133        C  0.51755128  0.28646171  0.16940568    -0.07400
C134        C  0.04432130  0.30355166  0.19576721     0.13400
C135        C  0.04044084  0.33130728  0.21579752    -0.20900
C136        C  0.50977455  0.34167895  0.21074884    -0.07400
C137        C  0.48460270  0.32627414  0.18348038     0.13400
C138        C  0.45288361  0.33804588  0.17594856    -0.24300
H139        H  0.46901204  0.28646683  0.14261416     0.14700
H140        H  0.06025744  0.34357544  0.23635459     0.14800
C141        C  0.07706868  0.29280399  0.20272037    -0.24200
H142        H  0.43754095  0.32517405  0.15288537     0.05000
H143        H  0.46736318  0.37193192  0.17500542     0.08200
H144        H  0.42907894  0.32579765  0.19438641     0.08200
H145        H  0.09718052  0.29964910  0.18184621     0.08200
H146        H  0.06295840  0.25983711  0.20855056     0.08200
H147        H  0.09656855  0.31066582  0.22312394     0.05000
C148        C  0.03740548  0.25733038  0.01444297    -0.20900
C149        C  0.50896501  0.22138587  0.49829786    -0.07400
C150        C  0.48192800  0.18634513  0.01607634     0.13400
C151        C  0.48476346  0.18794013  0.04921606    -0.20900
C152        C  0.51334902  0.22353836  0.06541919    -0.07400
C153        C  0.04015511  0.25885368  0.04771798     0.13400
C154        C  0.07264317  0.29761733  0.06351902    -0.24300
H155        H  0.05766152  0.28401006  0.50096971     0.14700
H156        H  0.46405513  0.16113100  0.06267189     0.14800
C157        C  0.44904286  0.14742143  0.00063450    -0.24200
H158        H  0.09243911  0.32095321  0.04600917     0.05000
H159        H  0.09257688  0.29069811  0.07855566     0.08200
H160        H  0.05819352  0.31136592  0.07818614     0.08200
H161        H  0.46327097  0.13245336  0.48698209     0.08200
H162        H  0.43001620  0.15443990  0.48484213     0.08200
H163        H  0.42850720  0.12491105  0.01832826     0.05000
C164        C  0.33459333  0.47885185  0.37412330    -0.20900
C165        C  0.32288223  0.44743736  0.35144336    -0.07400
C166        C  0.28185862  0.41430596  0.35152333     0.13400
C167        C  0.25371502  0.41454013  0.37318331    -0.20900
C168        C  0.26522210  0.44665953  0.39500848    -0.07400
C169        C  0.30635938  0.47916057  0.39563237     0.13400
C170        C  0.32121803  0.51573884  0.41741991    -0.24300
H171        H  0.36597928  0.50400168  0.37469084     0.14700
H172        H  0.22206204  0.38987605  0.37259153     0.14800
C173        C  0.26671190  0.37958308  0.32789852    -0.24200
H174        H  0.34619130  0.51791677  0.43274807     0.05000
H175        H  0.29760695  0.01127701  0.43516451     0.08200
H176        H  0.33340061  0.54409737  0.40319393     0.08200
H177        H  0.28025382  0.86375650  0.32674344     0.08200
H178        H  0.27176276  0.39198803  0.30362292     0.08200
H179        H  0.23342627  0.35755364  0.33049888     0.05000
C180        C  0.07818113  0.45951433  0.39025663    -0.20900
C181        C  0.09153723  0.48006421  0.36131630    -0.07400
C182        C  0.13240065  0.49328306  0.35165670     0.13400
C183        C  0.15793949  0.48527780  0.37067367    -0.20900
C184        C  0.14430553  0.46332632  0.39884852    -0.07400
C185        C  0.10379197  0.45058163  0.40899129     0.13400
C186        C  0.08655036  0.42606405  0.43863153    -0.24300
H187        H  0.04697949  0.44889296  0.39766639     0.14700
H188        H  0.18901837  0.49578715  0.36296698     0.14800
C189        C  0.14987399  0.51526800  0.32099852    -0.24200
H190        H  0.05375743  0.41666447  0.44181262     0.05000
H191        H  0.10328153  0.94408319  0.45958048     0.08200
H192        H  0.08878595  0.39779053  0.43746059     0.08200
H193        H  0.14653659  0.04284318  0.31969424     0.08200
H194        H  0.13417059  0.49401960  0.30091420     0.08200
H195        H  0.18305291  0.52583509  0.31874508     0.05000
C196        C  0.25562730  0.41067471  0.18491913    -0.20900
C197        C  0.26407231  0.44523991  0.16720638    -0.07400
C198        C  0.30346422  0.48025876  0.16903223     0.13400
C199        C  0.33271029  0.48084444  0.19008719    -0.20900
C200        C  0.32377054  0.44715608  0.20946183    -0.07400
C201        C  0.28505785  0.41072519  0.20553320     0.13400
C202        C  0.27360527  0.37197875  0.22338912    -0.24300
H203        H  0.22543828  0.38367063  0.18300302     0.14700
H204        H  0.36258865  0.50815043  0.19171704     0.14800
C205        C  0.31415924  0.51759503  0.14958319    -0.24200
H206        H  0.24206074  0.34708600  0.21752057     0.05000
H207        H  0.27488928  0.37788112  0.24914842     0.08200
H208        H  0.29481907  0.36064139  0.21718090     0.08200
H209        H  0.28906635  0.02978983  0.15983615     0.08200
H210        H  0.31116004  0.50946524  0.12408934     0.08200
H211        H  0.34609362  0.54259849  0.15410202     0.05000
C212        C  0.07474573  0.45115711  0.17875181    -0.20900
C213        C  0.09150767  0.48175480  0.20237769    -0.07400
C214        C  0.13460260  0.00328927  0.20696463     0.13400
C215        C  0.15917062  0.49228346  0.18934252    -0.20900
C216        C  0.14236140  0.46096028  0.16652096    -0.07400
C217        C  0.09955199  0.44039693  0.16084321     0.13400
C218        C  0.07957760  0.40563959  0.13727093    -0.24300
H219        H  0.04180646  0.43416287  0.17533177     0.14700
H220        H  0.19197650  0.00877058  0.19285429     0.14800
C221        C  0.15575707  0.03899030  0.22959639    -0.24200
H222        H  0.04570428  0.39163492  0.13704664     0.05000
H223        H  0.08686718  0.38135234  0.14336083     0.08200
H224        H  0.09065745  0.41694330  0.11314418     0.08200
H225        H  0.14479089  0.02976730  0.25395722     0.08200
H226        H  0.15024244  0.06383459  0.22201543     0.08200
H227        H  0.18947799  0.05181965  0.23001487     0.05000
C228        C  0.21498487  0.42390193  0.04945195    -0.20900
C229        C  0.19923102  0.44578497  0.06554030    -0.07400
C230        C  0.18511446  0.46799543  0.04755345     0.13400
C231        C  0.18691401  0.46737110  0.01446361    -0.20900
C232        C  0.20239684  0.44524926  0.49843145    -0.07400
C233        C  0.21673355  0.42329218  0.01621625     0.13400
C234        C  0.23303214  0.39811409  0.50085543    -0.24300
H235        H  0.22571920  0.40677164  0.06300441     0.14700
H236        H  0.17634537  0.48472518  0.00102431     0.14800
C237        C  0.16930560  0.49374351  0.06268203    -0.24200
H238        H  0.23979657  0.38057340  0.01829178     0.05000
H239        H  0.26069924  0.91671787  0.48802426     0.08200
H240        H  0.20975948  0.37549344  0.48421345     0.08200
H241        H  0.19252062  0.51617087  0.07945431     0.08200
H242        H  0.14018722  0.47384769  0.07515628     0.08200
H243        H  0.16275762  0.51134473  0.04494891     0.05000
C244        C  0.32148255  0.29753745  0.37187957    -0.20900
C245        C  0.31205391  0.31280105  0.39891919    -0.07400
C246        C  0.33750285  0.35469698  0.40713396     0.13400
C247        C  0.37153464  0.37990213  0.38808815    -0.20900
C248        C  0.38019609  0.36480728  0.36041874    -0.07400
C249        C  0.35450595  0.32272053  0.35233811     0.13400
C250        C  0.36109521  0.30346243  0.32318701    -0.24300
H251        H  0.30226571  0.26544888  0.36562723     0.14700
H252        H  0.39034689  0.41212134  0.39406647     0.14800
C253        C  0.32769180  0.37371530  0.43470526    -0.24200
H254        H  0.33930272  0.26993535  0.32185883     0.05000
H255        H  0.39237452  0.30779156  0.32337799     0.08200
H256        H  0.35620104  0.31695728  0.30156327     0.08200
H257        H  0.33008387  0.35998417  0.45709504     0.08200
H258        H  0.29619678  0.36874726  0.43199008     0.08200
H259        H  0.34918457  0.40728546  0.43637227     0.05000
C260        C  0.12576699  0.17331940  0.35178803    -0.20900
C261        C  0.11487570  0.13213486  0.35595879    -0.07400
C262        C  0.13075451  0.12178788  0.38250144     0.13400
C263        C  0.15892222  0.15304694  0.40287733    -0.20900
C264        C  0.17236952  0.19450672  0.39702849    -0.07400
C265        C  0.15460244  0.20460887  0.37166696     0.13400
C266        C  0.16577939  0.24836724  0.36550582    -0.24300
H267        H  0.11314101  0.18136262  0.33187269     0.14700
H268        H  0.17208442  0.14523192  0.42256897     0.14800
C269        C  0.11818149  0.07796038  0.38948878    -0.24200
H270        H  0.14722274  0.25044224  0.34594399     0.05000
H271        H  0.19847998  0.26683641  0.35878224     0.08200
H272        H  0.16019593  0.26180397  0.38703107     0.08200
H273        H  0.12926946  0.06566305  0.37054531     0.08200
H274        H  0.08428442  0.05926452  0.39108866     0.08200
H275        H  0.13145664  0.07512665  0.41213673     0.05000
C276        C  0.33547863  0.34726148  0.15643783    -0.20900
C277        C  0.31161543  0.30693659  0.16752014    -0.07400
C278        C  0.32485243  0.29529020  0.19489219     0.13400
C279        C  0.35950087  0.32471572  0.21143424    -0.20900
C280        C  0.38238001  0.36554604  0.20133575    -0.07400
C281        C  0.37065415  0.37673303  0.17294982     0.13400
C282        C  0.39386796  0.41980831  0.16051300    -0.24300
H283        H  0.32580649  0.35614890  0.13524320     0.14700
H284        H  0.36867030  0.31572288  0.23285153     0.14800
C285        C  0.30348639  0.25174341  0.20666563    -0.24200
H286        H  0.42587600  0.42795523  0.15515862     0.05000
H287        H  0.39395178  0.44166110  0.17824578     0.08200
H288        H  0.37985664  0.42319407  0.13845984     0.08200
H289        H  0.30083647  0.23054603  0.18727323     0.08200
H290        H  0.27265350  0.24311431  0.21574519     0.08200
H291        H  0.32063880  0.24772076  0.22637435     0.05000
C292        C  0.12868387  0.12039362  0.18830744    -0.20900
C293        C  0.11544808  0.13398987  0.21430258    -0.07400
C294        C  0.12854223  0.17628876  0.21720984     0.13400
C295        C  0.15651453  0.20396574  0.19530809    -0.20900
C296        C  0.17102133  0.19054708  0.17008139    -0.07400
C297        C  0.15612153  0.14809810  0.16607590     0.13400
C298        C  0.17063573  0.13209421  0.13935274    -0.24300
H299        H  0.11790136  0.08792271  0.18562247     0.14700
H300        H  0.16799443  0.23655093  0.19830823     0.14800
C301        C  0.11478376  0.19281651  0.24414537    -0.24200
H302        H  0.15693187  0.09827288  0.14035094     0.05000
H303        H  0.20448453  0.14618452  0.14053752     0.08200
H304        H  0.16175500  0.13962485  0.11642926     0.08200
H305        H  0.12286140  0.18437925  0.26704202     0.08200
H306        H  0.08114323  0.18012717  0.24271189     0.08200
H307        H  0.12954672  0.22675960  0.24348345     0.05000
C308        C  0.20284697  0.24162236  0.01565884    -0.20900
C309        C  0.24009948  0.25447447  0.49994284    -0.07400
C310        C  0.27579271  0.26547819  0.01826486     0.13400
C311        C  0.27315989  0.26375281  0.05136806    -0.20900
C312        C  0.23599327  0.25104759  0.06714449    -0.07400
C313        C  0.20024443  0.23986284  0.04887893     0.13400
C314        C  0.15947129  0.22728243  0.06398578    -0.24300
H315        H  0.17548835  0.23329065  0.00183073     0.14700
H316        H  0.30056380  0.27200083  0.06510867     0.14800
C317        C  0.31665489  0.27768803  0.00344689    -0.24200
H318        H  0.13570790  0.22236298  0.04616918     0.05000
H319        H  0.16255803  0.25161406  0.08059832     0.08200
H320        H  0.14834438  0.19802666  0.07678520     0.08200
H321        H  0.32843309  0.30764527  0.49108884     0.08200
H322        H  0.31361468  0.25394662  0.48664960     0.08200
H323        H  0.34005591  0.28189796  0.02137083     0.05000
C324        C  0.20553627  0.22189953  0.65128171     0.79700
N325        N  0.20393084  0.22227254  0.61918202    -0.78600
C326        C  0.23655370  0.25085834  0.60248451     0.82100
N327        N  0.27122305  0.27830355  0.61832647    -0.78600
C328        C  0.27334956  0.27777599  0.65035011     0.82200
N329        N  0.24011006  0.24988768  0.66654706    -0.80300
C330        C  0.20735263  0.22662346  0.91571920     0.79700
N331        N  0.20722224  0.22635191  0.94787544    -0.78600
C332        C  0.24040636  0.25498878  0.96460553     0.82100
N333        N  0.27378078  0.28373704  0.94871411    -0.78600
C334        C  0.27447936  0.28399363  0.91662976     0.82200
N335        N  0.24121132  0.25513454  0.90043223    -0.80300
C336        C  0.23020723  0.44531588  0.64937345     0.79700
N337        N  0.20123932  0.44964387  0.66517285    -0.78600
C338        C  0.17073323  0.45130692  0.64924635     0.82100
N339        N  0.16989111  0.44924930  0.61722046    -0.78600
C340        C  0.19900934  0.44559254  0.60093817     0.82200
N341        N  0.22919064  0.44357429  0.61725691    -0.80300
C342        C  0.23249715  0.44731789  0.91392601     0.79700
N343        N  0.20309490  0.45189753  0.89912951    -0.78600
C344        C  0.17348184  0.45420085  0.91576818     0.82100
N345        N  0.17354307  0.45154465  0.94771847    -0.78600
C346        C  0.20241149  0.44627587  0.96306438     0.82200
N347        N  0.23216361  0.44461370  0.94595856    -0.80300
C348        C  0.51638515  0.25291941  0.65021412     0.79700
N349        N  0.51043902  0.21838942  0.66474279    -0.78600
C350        C  0.50658704  0.18584600  0.64785657     0.82100
N351        N  0.50817832  0.18793972  0.61575079    -0.78600
C352        C  0.51414530  0.22248405  0.60071303     0.82200
N353        N  0.51755902  0.25458788  0.61815128    -0.80300
C354        C  0.51290639  0.25190134  0.91362514     0.79700
N355        N  0.50696479  0.21720681  0.89882934    -0.78600
C356        C  0.50301262  0.18479317  0.91552999     0.82100
N357        N  0.50401315  0.18683317  0.94748779    -0.78600
C358        C  0.50883674  0.22070695  0.96296650     0.82200
N359        N  0.51337171  0.25341976  0.94588860    -0.80300
O360        O  0.37878516  0.98876674  0.74582927    -0.88700
C361        C  0.08920158  0.10183365  0.83103565     1.11300
O362        O  0.43681842  0.46720759  0.78181890    -1.36500
O363        O  0.05933388  0.10507336  0.74975762    -0.90200
O364        O  0.35347603  0.42073300  0.74558913    -0.90900
O365        O  0.44379962  0.42964491  0.71484642    -0.79700
O366        O  0.46964194  0.04838908  0.75335003    -1.01800
C367        C  0.06294871  0.48595737  0.72456393     1.21400
O368        O  0.49005196  0.43573539  0.78182161    -1.36700
Mn369      Mn  0.48241975  0.47412751  0.81671893     1.82100
O370        O  0.02894108  0.48113159  0.71574890    -0.78800
O371        O  0.10128640  0.07919870  0.74889928    -0.88200
C372        C  0.06165033  0.48390916  0.84013335     1.12400
C373        C  0.09027624  0.10412577  0.73902170     1.07200
O374        O  0.44221510  0.42809333  0.84837355    -0.79700
O375        O  0.02125452  0.02042409  0.78307014    -1.33400
O376        O  0.40993476  0.38792580  0.81059048    -0.98900
C377        C  0.50446490  0.36720070  0.73528797     1.05900
Mn378      Mn  0.08264392  0.03338149  0.78348194     1.48600
O379        O  0.46857452  0.35575966  0.74556236    -0.88100
Mn380      Mn  0.38371334  0.40725551  0.78097630     1.49600
O381        O  0.37773825  0.98768071  0.81670024    -0.92000
C382        C  0.47341980  0.04503137  0.72505925     1.19100
C383        C  0.35288116  0.45189504  0.82655905     1.11100
Mn384      Mn  0.48313912  0.47498119  0.74780889     1.81000
O385        O  0.06759446  0.48713660  0.81187501    -0.97200
Mn386      Mn  0.42339175  0.01538698  0.78206972     1.49300
C387        C  0.35402143  0.45237295  0.73482242     1.07700
Mn388      Mn  0.04960914  0.44201565  0.78189568     1.49900
C389        C  0.50410747  0.36679214  0.82761381     1.10600
O390        O  0.41079876  0.38861829  0.75152986    -1.03000
O391        O  0.10042354  0.07740656  0.82013787    -0.92600
C392        C  0.41470274  0.39559878  0.72331319     1.20600
O393        O  0.06974441  0.48848910  0.75288146    -1.03300
O394        O  0.05841601  0.10330613  0.82018020    -0.90700
O395        O  0.03604152  0.39747759  0.81669772    -0.90300
O396        O  0.35250307  0.42006138  0.81604356    -0.90400
Mn397      Mn  0.01469495  0.07377222  0.78399441     1.47900
O398        O  0.02800349  0.47949306  0.84943273    -0.78800
C399        C  0.41317065  0.39421263  0.83893892     1.14900
O400        O  0.47817333  0.01578046  0.71611150    -0.77600
O401        O  0.47597492  0.01338747  0.84946786    -0.77200
Mn402      Mn  0.44187020  0.37415330  0.78122769     1.51100
O403        O  0.03632424  0.39818456  0.74628534    -0.89500
O404        O  0.46822250  0.04658803  0.81264550    -0.97100
O405        O  0.46822677  0.35565388  0.81719518    -0.92100
C406        C  0.47040493  0.04216056  0.84090035     1.12700
C407        C  0.46295870  0.13193559  0.87533385    -0.20900
C408        C  0.49319384  0.14612458  0.89887597    -0.07400
C409        C  0.01280230  0.12332403  0.90561539     0.13400
C410        C  0.00244550  0.08764469  0.88778040    -0.20900
C411        C  0.47332689  0.07433480  0.86322713    -0.07400
C412        C  0.45246066  0.09640794  0.85764687     0.13400
C413        C  0.41818256  0.08262192  0.83383290    -0.24300
H414        H  0.44716860  0.14883559  0.87084831     0.14700
H415        H  0.01887096  0.07132134  0.89194055     0.14800
C416        C  0.04628938  0.13768481  0.93017183    -0.24200
H417        H  0.40601283  0.10403245  0.83271083     0.05000
H418        H  0.39245238  0.05251318  0.84076417     0.08200
H419        H  0.42868546  0.08091369  0.80986916     0.08200
H420        H  0.03380666  0.13764726  0.95387746     0.08200
H421        H  0.07118859  0.16913831  0.92453682     0.08200
H422        H  0.05985742  0.11745424  0.93109079     0.05000
C423        C  0.48997328  0.30222085  0.90120480    -0.20900
C424        C  0.51560098  0.28610921  0.89419316    -0.07400
C425        C  0.04072878  0.30045076  0.86697773     0.13400
C426        C  0.03740208  0.32805800  0.84658503    -0.20900
C427        C  0.50934615  0.34154804  0.85226740    -0.07400
C428        C  0.48645026  0.32959738  0.88055605     0.13400
C429        C  0.45856081  0.34589116  0.88919171    -0.24300
H430        H  0.47124000  0.29194727  0.92222046     0.14700
H431        H  0.05577575  0.33796173  0.82536304     0.14800
C432        C  0.07150857  0.28717900  0.85947409    -0.24200
H433        H  0.44463507  0.33526413  0.91280817     0.05000
H434        H  0.43337731  0.33497091  0.87169726     0.08200
H435        H  0.47606062  0.37993125  0.88956058     0.08200
H436        H  0.05571131  0.25394952  0.85379965     0.08200
H437        H  0.09240644  0.29380379  0.87997650     0.08200
H438        H  0.09052503  0.30366160  0.83875582     0.05000
C439        C  0.96791509  0.13541308  0.68929473    -0.20900
C440        C  0.49641657  0.14734784  0.66486503    -0.07400
C441        C  0.51563544  0.12392132  0.65892250     0.13400
C442        C  0.50565089  0.08924038  0.67767364    -0.20900
C443        C  0.47804045  0.07814115  0.70306433    -0.07400
C444        C  0.95894795  0.10190919  0.70867704     0.13400
C445        C  0.92963100  0.09321978  0.73549209    -0.24300
H446        H  0.95306628  0.15322280  0.69382348     0.14700
H447        H  0.52121098  0.07204570  0.67353876     0.14800
C448        C  0.54846208  0.13676867  0.63426570    -0.24200
H449        H  0.91639727  0.11375903  0.73531483     0.05000
H450        H  0.94606026  0.09840233  0.75823395     0.08200
H451        H  0.90384647  0.06140956  0.73378689     0.08200
H452        H  0.57364251  0.16844703  0.63939514     0.08200
H453        H  0.53541862  0.13561998  0.61051615     0.08200
H454        H  0.56182906  0.11634387  0.63385048     0.05000
C455        C  0.48917926  0.29933359  0.66300846    -0.20900
C456        C  0.51767690  0.28664231  0.66940290    -0.07400
C457        C  0.04446363  0.30401170  0.69545619     0.13400
C458        C  0.04058350  0.33175091  0.71550350    -0.20900
C459        C  0.50991535  0.34185964  0.71074271    -0.07400
C460        C  0.48465893  0.32636392  0.68352443     0.13400
C461        C  0.45284926  0.33802848  0.67604376    -0.24300
H462        H  0.46898224  0.28646721  0.64271114     0.14700
H463        H  0.06064304  0.34427617  0.73590599     0.14800
C464        C  0.07754823  0.29365709  0.70213660    -0.24200
H465        H  0.43746561  0.32511443  0.65300047     0.05000
H466        H  0.46725566  0.37190698  0.67508572     0.08200
H467        H  0.42908709  0.32574217  0.69451268     0.08200
H468        H  0.09742664  0.30056539  0.68110883     0.08200
H469        H  0.06375388  0.26073684  0.70802322     0.08200
H470        H  0.09721992  0.31171146  0.72240841     0.05000
C471        C  0.03699631  0.25724182  0.51447401    -0.20900
C472        C  0.50883626  0.22135411  0.99823129    -0.07400
C473        C  0.48205214  0.18635632  0.51612154     0.13400
C474        C  0.48482581  0.18793958  0.54926478    -0.20900
C475        C  0.51335506  0.22354429  0.56549228    -0.07400
C476        C  0.03972759  0.25880802  0.54774463     0.13400
C477        C  0.07200900  0.29771264  0.56352382    -0.24300
H478        H  0.05820821  0.28403882  0.00094156     0.14700
H479        H  0.46410657  0.16111575  0.56270350     0.14800
C480        C  0.44922226  0.14742395  0.50065214    -0.24200
H481        H  0.09171432  0.32108318  0.54600194     0.05000
H482        H  0.09206918  0.29102325  0.57860899     0.08200
H483        H  0.05736832  0.31131752  0.57813118     0.08200
H484        H  0.46303877  0.13241292  0.98694633     0.08200
H485        H  0.42983351  0.15445898  0.98484634     0.08200
H486        H  0.42867403  0.12489020  0.51832786     0.05000
C487        C  0.33469379  0.47814469  0.87454939    -0.20900
C488        C  0.32272722  0.44739854  0.85126918    -0.07400
C489        C  0.28138253  0.41498077  0.85059718     0.13400
C490        C  0.25323278  0.41514590  0.87228159    -0.20900
C491        C  0.26501925  0.44660085  0.89478304    -0.07400
C492        C  0.30643266  0.47849372  0.89601361     0.13400
C493        C  0.32161158  0.51458254  0.91834818    -0.24300
H494        H  0.36630855  0.50277800  0.87560064     0.14700
H495        H  0.22137932  0.39100156  0.87117112     0.14800
C496        C  0.26597314  0.38123051  0.82609935    -0.24200
H497        H  0.34599607  0.51573498  0.93382623     0.05000
H498        H  0.29884865  0.00982392  0.93662680     0.08200
H499        H  0.33466766  0.54335424  0.90455526     0.08200
H500        H  0.27814496  0.86567766  0.82329584     0.08200
H501        H  0.27184364  0.39471805  0.80215808     0.08200
H502        H  0.23248867  0.35974849  0.82815682     0.05000
C503        C  0.07811319  0.45962968  0.89022691    -0.20900
C504        C  0.09146170  0.48016528  0.86128003    -0.07400
C505        C  0.13232629  0.49339363  0.85161865     0.13400
C506        C  0.15787017  0.48540313  0.87063891    -0.20900
C507        C  0.14423565  0.46344690  0.89881152    -0.07400
C508        C  0.10372810  0.45070365  0.90896105     0.13400
C509        C  0.08650149  0.42619106  0.93860484    -0.24300
H510        H  0.04691109  0.44900901  0.89764068     0.14700
H511        H  0.18894944  0.49591642  0.86293250     0.14800
C512        C  0.14979682  0.51537275  0.82095632    -0.24200
H513        H  0.05371203  0.41679887  0.94179837     0.05000
H514        H  0.10345442  0.94431697  0.95954625     0.08200
H515        H  0.08873113  0.39791453  0.93742879     0.08200
H516        H  0.14638926  0.04287038  0.81951391     0.08200
H517        H  0.13409976  0.49412045  0.80087263     0.08200
H518        H  0.18297776  0.52594803  0.81870537     0.05000
C519        C  0.25600879  0.41052616  0.68445015    -0.20900
C520        C  0.26401301  0.44538374  0.66732473    -0.07400
C521        C  0.30298531  0.48086603  0.66978624     0.13400
C522        C  0.33229507  0.48148670  0.69077991    -0.20900
C523        C  0.32380584  0.44741175  0.70954364    -0.07400
C524        C  0.28546491  0.41066882  0.70509343     0.13400
C525        C  0.27437454  0.37166374  0.72244684    -0.24300
H526        H  0.22610313  0.38322091  0.68209639     0.14700
H527        H  0.36183729  0.50915646  0.69289090     0.14800
C528        C  0.31313453  0.51861142  0.65106452    -0.24200
H529        H  0.24310448  0.34653593  0.71617014     0.05000
H530        H  0.27513812  0.37691816  0.74827875     0.08200
H531        H  0.29609701  0.36098659  0.71619330     0.08200
H532        H  0.28749527  0.02983311  0.66142864     0.08200
H533        H  0.31055949  0.51130101  0.62542956     0.08200
H534        H  0.34479895  0.54393055  0.65598387     0.05000
C535        C  0.07457383  0.45100884  0.67883131    -0.20900
C536        C  0.09136841  0.48173078  0.70236344    -0.07400
C537        C  0.13435487  0.00326830  0.70684403     0.13400
C538        C  0.15902607  0.49228249  0.68930215    -0.20900
C539        C  0.14218695  0.46084260  0.66657748    -0.07400
C540        C  0.09936386  0.44018626  0.66097016     0.13400
C541        C  0.07936632  0.40526182  0.63753962    -0.24300
H542        H  0.04162453  0.43395416  0.67546710     0.14700
H543        H  0.19172806  0.00882449  0.69265339     0.14800
C544        C  0.15553286  0.03906014  0.72939231    -0.24200
H545        H  0.04548756  0.39120346  0.63736551     0.05000
H546        H  0.08673313  0.38105834  0.64373585     0.08200
H547        H  0.09035882  0.41640367  0.61336711     0.08200
H548        H  0.14464782  0.02991319  0.75378274     0.08200
H549        H  0.14994986  0.06384251  0.72177250     0.08200
H550        H  0.18926193  0.05194080  0.72975618     0.05000
C551        C  0.21498730  0.42381727  0.54956971    -0.20900
C552        C  0.19898442  0.44548491  0.56564369    -0.07400
C553        C  0.18464812  0.46749611  0.54763780     0.13400
C554        C  0.18652154  0.46692133  0.51455202    -0.20900
C555        C  0.20250819  0.44545469  0.99832746    -0.07400
C556        C  0.21680764  0.42325670  0.51633623     0.13400
C557        C  0.23266572  0.39791079  0.00071196    -0.24300
H558        H  0.22588043  0.40683141  0.56313108     0.14700
H559        H  0.17579669  0.48413621  0.50110498     0.14800
C560        C  0.16851932  0.49298877  0.56273337    -0.24200
H561        H  0.24027644  0.38087211  0.51844452     0.05000
H562        H  0.26106804  0.91726266  0.98787820     0.08200
H563        H  0.20926870  0.37536071  0.98410543     0.08200
H564        H  0.19161681  0.51552899  0.57951391     0.08200
H565        H  0.13943192  0.47292132  0.57518550     0.08200
H566        H  0.16180368  0.51045051  0.54498475     0.05000
C567        C  0.32150191  0.29754683  0.87184760    -0.20900
C568        C  0.31211248  0.31278566  0.89892164    -0.07400
C569        C  0.33763829  0.35465257  0.90719668     0.13400
C570        C  0.37164575  0.37987010  0.88813444    -0.20900
C571        C  0.38024350  0.36480823  0.86041823    -0.07400
C572        C  0.35454076  0.32273139  0.85231943     0.13400
C573        C  0.36115718  0.30348102  0.82317668    -0.24300
H574        H  0.30225423  0.26547052  0.86556616     0.14700
H575        H  0.39050060  0.41207346  0.89414832     0.14800
C576        C  0.32795577  0.37363283  0.93486594    -0.24200
H577        H  0.33936075  0.26995529  0.82183815     0.05000
H578        H  0.39243515  0.30780366  0.82340070     0.08200
H579        H  0.35629528  0.31698442  0.80154481     0.08200
H580        H  0.33038145  0.35981593  0.95719923     0.08200
H581        H  0.29647829  0.36873762  0.93224306     0.08200
H582        H  0.34950448  0.40718819  0.93657800     0.05000
C583        C  0.12562668  0.17328646  0.85190030    -0.20900
C584        C  0.11487815  0.13212316  0.85597588    -0.07400
C585        C  0.13090957  0.12179380  0.88243438     0.13400
C586        C  0.15909757  0.15305291  0.90279769    -0.20900
C587        C  0.17239542  0.19449706  0.89703389    -0.07400
C588        C  0.15446000  0.20457571  0.87178296     0.13400
C589        C  0.16544730  0.24830703  0.86576002    -0.24300
H590        H  0.11287632  0.18132020  0.83206050     0.14700
H591        H  0.17238214  0.14525572  0.92241763     0.14800
C592        C  0.11847133  0.07798563  0.88935440    -0.24200
H593        H  0.14681237  0.25037139  0.84625507     0.05000
H594        H  0.19813288  0.26691507  0.85903115     0.08200
H595        H  0.15981191  0.26159031  0.88735225     0.08200
H596        H  0.12956026  0.06577646  0.87034939     0.08200
H597        H  0.08458518  0.05921345  0.89101133     0.08200
H598        H  0.13184392  0.07515916  0.91195506     0.05000
C599        C  0.33567810  0.34719342  0.65636208    -0.20900
C600        C  0.31173446  0.30691634  0.66752573    -0.07400
C601        C  0.32491881  0.29533383  0.69496142     0.13400
C602        C  0.35956720  0.32478693  0.71149118    -0.20900
C603        C  0.38249250  0.36558903  0.70133115    -0.07400
C604        C  0.37083989  0.37669736  0.67287349     0.13400
C605        C  0.39409297  0.41973616  0.66037317    -0.24300
H606        H  0.32605817  0.35603536  0.63511650     0.14700
H607        H  0.36868860  0.31584093  0.73295696     0.14800
C608        C  0.30349036  0.25182917  0.70682556    -0.24200
H609        H  0.42612234  0.42787448  0.65511335     0.05000
H610        H  0.39409871  0.44162878  0.67803157     0.08200
H611        H  0.38015840  0.42305676  0.63825264     0.08200
H612        H  0.30081912  0.23055139  0.68749161     0.08200
H613        H  0.27266430  0.24327745  0.71587517     0.08200
H614        H  0.32060990  0.24784309  0.72657841     0.05000
C615        C  0.12857208  0.12044370  0.68830780    -0.20900
C616        C  0.11534587  0.13403606  0.71431138    -0.07400
C617        C  0.12848048  0.17634484  0.71723259     0.13400
C618        C  0.15651711  0.20403055  0.69536137    -0.20900
C619        C  0.17103603  0.19061160  0.67014133    -0.07400
C620        C  0.15607383  0.14815418  0.66610910     0.13400
C621        C  0.17059397  0.13214244  0.63939500    -0.24300
H622        H  0.11773156  0.08796471  0.68559002     0.14700
H623        H  0.16802748  0.23662177  0.69837590     0.14800
C624        C  0.11467666  0.19286647  0.74414189    -0.24200
H625        H  0.15684594  0.09831468  0.64037467     0.05000
H626        H  0.20443652  0.14618855  0.64061254     0.08200
H627        H  0.16177039  0.13971622  0.61646519     0.08200
H628        H  0.12269760  0.18440968  0.76705371     0.08200
H629        H  0.08104008  0.18018846  0.74266257     0.08200
H630        H  0.12945360  0.22681129  0.74348771     0.05000
C631        C  0.20279848  0.24151037  0.51568976    -0.20900
C632        C  0.24012543  0.25444162  0.99992145    -0.07400
C633        C  0.27580547  0.26567223  0.51828706     0.13400
C634        C  0.27318143  0.26393693  0.55139137    -0.20900
C635        C  0.23599241  0.25108133  0.56717881    -0.07400
C636        C  0.20020821  0.23975426  0.54891361     0.13400
C637        C  0.15940053  0.22701815  0.56402013    -0.24300
H638        H  0.17541065  0.23306141  0.50186744     0.14700
H639        H  0.30061736  0.27230121  0.56512276     0.14800
C640        C  0.31671654  0.27807997  0.50347386    -0.24200
H641        H  0.13560424  0.22199856  0.54620358     0.05000
H642        H  0.16238371  0.25131133  0.58062914     0.08200
H643        H  0.14838172  0.19777945  0.57682111     0.08200
H644        H  0.32850149  0.30726526  0.99105632     0.08200
H645        H  0.31342164  0.25350125  0.98662344     0.08200
H646        H  0.34015801  0.28240699  0.52139873     0.05000
C647        C  0.20577313  0.72191740  0.15122606     0.79700
N648        N  0.20409848  0.72226730  0.11912896    -0.78600
C649        C  0.23671029  0.75079449  0.10238852     0.82100
N650        N  0.27144008  0.77820906  0.11818578    -0.78600
C651        C  0.27363365  0.77770783  0.15020784     0.82200
N652        N  0.24040178  0.74988022  0.16644251    -0.80300
C653        C  0.20712358  0.72660790  0.41564058     0.79700
N654        N  0.20704142  0.72634586  0.44780185    -0.78600
C655        C  0.24024828  0.75500598  0.46450693     0.82100
N656        N  0.27358215  0.78375931  0.44858032    -0.78600
C657        C  0.27423483  0.78399645  0.41649714     0.82200
N658        N  0.24095685  0.75511653  0.40033020    -0.80300
C659        C  0.23013868  0.94534520  0.14935446     0.79700
N660        N  0.20118346  0.94977185  0.16506168    -0.78600
C661        C  0.17065667  0.95131291  0.14907627     0.82100
N662        N  0.16980727  0.94907992  0.11705278    -0.78600
C663        C  0.19894475  0.94535354  0.10084477     0.82200
N664        N  0.22913481  0.94342771  0.11723798    -0.80300
C665        C  0.23223207  0.94650509  0.41401980     0.79700
N666        N  0.20294666  0.95128802  0.39922542    -0.78600
C667        C  0.17327598  0.95350743  0.41584095     0.82100
N668        N  0.17316258  0.95057232  0.44777292    -0.78600
C669        C  0.20189386  0.94509747  0.46313266     0.82200
N670        N  0.23169205  0.94347977  0.44604597    -0.80300
C671        C  0.51681326  0.75292426  0.15033067     0.79700
N672        N  0.51113072  0.71844236  0.16479198    -0.78600
C673        C  0.50758544  0.68609067  0.14781806     0.82100
N674        N  0.50908982  0.68823820  0.11572215    -0.78600
C675        C  0.51472853  0.72270119  0.10075952     0.82200
N676        N  0.51792157  0.75466297  0.11826572    -0.80300
C677        C  0.51310022  0.75207583  0.41379077     0.79700
N678        N  0.50711624  0.71737202  0.39899494    -0.78600
C679        C  0.50307033  0.68489577  0.41567317     0.82100
N680        N  0.50411498  0.68695062  0.44763078    -0.78600
C681        C  0.50905137  0.72086893  0.46311596     0.82200
N682        N  0.51360321  0.75359759  0.44604985    -0.80300
O683        O  0.37863251  0.48815640  0.24530825    -0.88700
C684        C  0.08909862  0.60182619  0.33090391     1.11300
O685        O  0.43685376  0.96720695  0.28188780    -1.36500
O686        O  0.05940754  0.60503795  0.24953728    -0.90200
O687        O  0.35366198  0.92101400  0.24546778    -0.90900
O688        O  0.44387026  0.92975989  0.21481879    -0.79700
O689        O  0.46941145  0.54830320  0.25285787    -1.01800
C690        C  0.06309708  0.98598616  0.22464876     1.21400
O691        O  0.49003640  0.93566533  0.28181280    -1.36700
Mn692      Mn  0.48243460  0.97400289  0.31676947     1.82100
O693        O  0.02913826  0.98129871  0.21585965    -0.78800
O694        O  0.10142351  0.57922313  0.24887298    -0.88200
C695        C  0.06176404  0.98375939  0.34024159     1.12400
C696        C  0.09042987  0.60413249  0.23893085     1.07200
O697        O  0.44214887  0.92791827  0.34834763    -0.79700
O698        O  0.02129905  0.52041925  0.28293097    -1.33400
O699        O  0.40984229  0.88786909  0.31050132    -0.98900
C700        C  0.50442153  0.86706628  0.23531177     1.05900
Mn701      Mn  0.08269384  0.53339318  0.28343756     1.48600
O702        O  0.46852282  0.85564840  0.24555291    -0.88100
Mn703      Mn  0.38373014  0.90729828  0.28086517     1.49600
O704        O  0.37746885  0.48763629  0.31633451    -0.92000
C705        C  0.47325427  0.54473833  0.22459202     1.19100
C706        C  0.35288254  0.95176921  0.32661017     1.11100
Mn707      Mn  0.48316839  0.97501018  0.24785941     1.81000
O708        O  0.06776452  0.98705985  0.31198702    -0.97200
Mn709      Mn  0.42315774  0.51519809  0.28163400     1.49300
C710        C  0.35408764  0.95271285  0.23495583     1.07700
Mn711      Mn  0.04975198  0.94195683  0.28197779     1.49900
C712        C  0.50396163  0.86666045  0.32762376     1.10600
O713        O  0.41086509  0.88867588  0.25145183    -1.03000
O714        O  0.10035365  0.57739067  0.32008572    -0.92600
C715        C  0.41481760  0.89566669  0.22324016     1.20600
O716        O  0.06991534  0.98845049  0.25296668    -1.03300
O717        O  0.05836364  0.60331571  0.31994712    -0.90700
O718        O  0.03605596  0.89737392  0.31677802    -0.90300
O719        O  0.35240671  0.91998205  0.31588076    -0.90400
Mn720      Mn  0.01468814  0.57375180  0.28372529     1.47900
O721        O  0.02806462  0.97923878  0.34951606    -0.78800
C722        C  0.41303898  0.89410977  0.33885671     1.14900
O723        O  0.47804466  0.51544248  0.21583334    -0.77600
O724        O  0.47591729  0.51368683  0.34918135    -0.77200
Mn725      Mn  0.44181503  0.87409599  0.28118048     1.51100
O726        O  0.03654963  0.89814861  0.24637574    -0.89500
O727        O  0.46802151  0.54658520  0.31220000    -0.97100
O728        O  0.46808557  0.85553619  0.31718913    -0.92100
C729        C  0.47033640  0.54241631  0.34048495     1.12700
C730        C  0.46400375  0.63308653  0.37457554    -0.20900
C731        C  0.49306765  0.64617958  0.39894704    -0.07400
C732        C  0.01187625  0.62268683  0.40605522     0.13400
C733        C  0.00161746  0.58715645  0.38803539    -0.20900
C734        C  0.47338333  0.57479994  0.36270718    -0.07400
C735        C  0.45376826  0.59793941  0.35649036     0.13400
C736        C  0.42157494  0.58612385  0.33115667    -0.24300
H737        H  0.44914167  0.65074707  0.36956093     0.14700
H738        H  0.01747147  0.57034837  0.39255958     0.14800
C739        C  0.04453271  0.63624377  0.43123175    -0.24200
H740        H  0.40960878  0.60770753  0.33010380     0.05000
H741        H  0.39524988  0.55551391  0.33608457     0.08200
H742        H  0.43442926  0.58643194  0.30775695     0.08200
H743        H  0.03137893  0.63595482  0.45470003     0.08200
H744        H  0.06987934  0.66766326  0.42610019     0.08200
H745        H  0.05768816  0.61566491  0.43236529     0.05000
C746        C  0.48980081  0.80207443  0.40123694    -0.20900
C747        C  0.51569865  0.78623979  0.39435611    -0.07400
C748        C  0.04095277  0.80073357  0.36736819     0.13400
C749        C  0.03763452  0.82830442  0.34692724    -0.20900
C750        C  0.50919940  0.84144221  0.35231223    -0.07400
C751        C  0.48614777  0.82932415  0.38052742     0.13400
C752        C  0.45795726  0.84530651  0.38902881    -0.24300
H753        H  0.47095901  0.79166857  0.42219165     0.14700
H754        H  0.05627886  0.83844214  0.32585108     0.14800
C755        C  0.07205330  0.78779879  0.36013414    -0.24200
H756        H  0.44394449  0.83459375  0.41260889     0.05000
H757        H  0.43283993  0.83422619  0.37145960     0.08200
H758        H  0.47524340  0.87935038  0.38941217     0.08200
H759        H  0.05652625  0.75458448  0.35443881     0.08200
H760        H  0.09276154  0.79452878  0.38077976     0.08200
H761        H  0.09122983  0.80441695  0.33951914     0.05000
C762        C  0.96727222  0.63445166  0.18815027    -0.20900
C763        C  0.49733770  0.64751695  0.16464490    -0.07400
C764        C  0.51807661  0.62534384  0.15981931     0.13400
C765        C  0.50771197  0.59037277  0.17832737    -0.20900
C766        C  0.47814559  0.57779486  0.20241901    -0.07400
C767        C  0.95798873  0.60075694  0.20739905     0.13400
C768        C  0.92708975  0.59090450  0.23316012    -0.24300
H769        H  0.95162887  0.65163513  0.19204200     0.14700
H770        H  0.52444710  0.57416774  0.17513838     0.14800
C771        C  0.55280193  0.63989711  0.13668491    -0.24200
H772        H  0.91353531  0.61115633  0.23260885     0.05000
H773        H  0.94221609  0.59547035  0.25637916     0.08200
H774        H  0.90167761  0.55908276  0.23052493     0.08200
H775        H  0.57699743  0.67163003  0.14292582     0.08200
H776        H  0.54141472  0.63936588  0.11240547     0.08200
H777        H  0.56693388  0.62015170  0.13686398     0.05000
C778        C  0.48937250  0.79916328  0.16310029    -0.20900
C779        C  0.51787621  0.78649963  0.16958152    -0.07400
C780        C  0.04463212  0.80366053  0.19589652     0.13400
C781        C  0.04068751  0.83140392  0.21589853    -0.20900
C782        C  0.50991247  0.84167450  0.21083836    -0.07400
C783        C  0.48474806  0.82616631  0.18357698     0.13400
C784        C  0.45294222  0.83780507  0.17600320    -0.24300
H785        H  0.46927188  0.78632036  0.14275083     0.14700
H786        H  0.06049474  0.84372210  0.23645390     0.14800
C787        C  0.07745090  0.79301699  0.20286012    -0.24200
H788        H  0.43763190  0.82488141  0.15293945     0.05000
H789        H  0.46733293  0.87168155  0.17503635     0.08200
H790        H  0.42912480  0.82551218  0.19443171     0.08200
H791        H  0.09757108  0.79989738  0.18198659     0.08200
H792        H  0.06340784  0.76005827  0.20869668     0.08200
H793        H  0.09692866  0.81091604  0.22326092     0.05000
C794        C  0.03728441  0.75741338  0.01452408    -0.20900
C795        C  0.50915431  0.72155586  0.49837683    -0.07400
C796        C  0.48203762  0.68645365  0.01629105     0.13400
C797        C  0.48503003  0.68809811  0.04942012    -0.20900
C798        C  0.51366957  0.72373028  0.06555684    -0.07400
C799        C  0.04014162  0.75898618  0.04778862     0.13400
C800        C  0.07255607  0.79783959  0.06353644    -0.24300
H801        H  0.05770968  0.78418404  0.50094564     0.14700
H802        H  0.46440408  0.66129885  0.06292283     0.14800
C803        C  0.44908365  0.64750336  0.00092714    -0.24200
H804        H  0.09222412  0.82119889  0.04599463     0.05000
H805        H  0.09262820  0.79106785  0.07853383     0.08200
H806        H  0.05803553  0.81148962  0.07823346     0.08200
H807        H  0.46333181  0.63258265  0.48716479     0.08200
H808        H  0.43012301  0.65462968  0.48513994     0.08200
H809        H  0.42862094  0.62502927  0.01867079     0.05000
C810        C  0.33476102  0.97683549  0.37529909    -0.20900
C811        C  0.32259762  0.94703134  0.35124662    -0.07400
C812        C  0.28098711  0.91533676  0.34976922     0.13400
C813        C  0.25278733  0.91526250  0.37151715    -0.20900
C814        C  0.26476952  0.94581238  0.39484334    -0.07400
C815        C  0.30645162  0.97699605  0.39682305     0.13400
C816        C  0.32194378  0.01224600  0.42000434    -0.24300
H817        H  0.36658169  0.00090622  0.37690816     0.14700
H818        H  0.22075641  0.89168055  0.36981282     0.14800
C819        C  0.26543076  0.88270611  0.32434926    -0.24200
H820        H  0.34566066  0.01208928  0.43551371     0.05000
H821        H  0.29688436  0.51439097  0.43281544     0.08200
H822        H  0.33594131  0.04159623  0.40690928     0.08200
H823        H  0.28311031  0.36227644  0.33131909     0.08200
H824        H  0.27212928  0.89730314  0.30078542     0.08200
H825        H  0.23178404  0.86175813  0.32585423     0.05000
C826        C  0.07807200  0.95924460  0.39028203    -0.20900
C827        C  0.09152492  0.97993989  0.36140516    -0.07400
C828        C  0.13242278  0.99320914  0.35181186     0.13400
C829        C  0.15788179  0.98506066  0.37080922    -0.20900
C830        C  0.14413546  0.96293359  0.39890307    -0.07400
C831        C  0.10360667  0.95019061  0.40900073     0.13400
C832        C  0.08626776  0.92554621  0.43857303    -0.24300
H833        H  0.04684398  0.94858576  0.39764341     0.14700
H834        H  0.18897897  0.99558036  0.36314388     0.14800
C835        C  0.15000446  0.01537669  0.32123568    -0.24200
H836        H  0.05348167  0.91618655  0.44173139     0.05000
H837        H  0.10358943  0.44470883  0.45959043     0.08200
H838        H  0.08844847  0.89724572  0.43732509     0.08200
H839        H  0.14641075  0.54273231  0.31937720     0.08200
H840        H  0.13437781  0.99424309  0.30107805     0.08200
H841        H  0.18319422  0.02596578  0.31903868     0.05000
C842        C  0.25668172  0.91052203  0.18367458    -0.20900
C843        C  0.26404402  0.94575721  0.16740288    -0.07400
C844        C  0.30229807  0.98189723  0.17095470     0.13400
C845        C  0.33164623  0.98257920  0.19193730    -0.20900
C846        C  0.32384098  0.94795499  0.20974625    -0.07400
C847        C  0.28608666  0.91080575  0.20446526     0.13400
C848        C  0.27545465  0.87148447  0.22115825    -0.24300
H849        H  0.22724309  0.88280584  0.18061293     0.14700
H850        H  0.36061881  0.01074067  0.19484890     0.14800
C851        C  0.31160082  0.02020497  0.15337100    -0.24200
H852        H  0.24459521  0.84606909  0.21428677     0.05000
H853        H  0.27545068  0.87587747  0.24706961     0.08200
H854        H  0.29786278  0.86169443  0.21492549     0.08200
H855        H  0.29315074  0.52933933  0.15538598     0.08200
H856        H  0.30976827  0.01419721  0.12754724     0.08200
H857        H  0.34278540  0.04597684  0.15899266     0.05000
C858        C  0.07461309  0.95122265  0.17872714    -0.20900
C859        C  0.09146372  0.98179168  0.20237337    -0.07400
C860        C  0.13464241  0.50328171  0.20703586     0.13400
C861        C  0.15905599  0.99230509  0.18917088    -0.20900
C862        C  0.14216008  0.96096468  0.16636395    -0.07400
C863        C  0.09934079  0.94042684  0.16075276     0.13400
C864        C  0.07927834  0.90565698  0.13719924    -0.24300
H865        H  0.04166297  0.93425823  0.17535739     0.14700
H866        H  0.19208274  0.50877439  0.19306996     0.14800
C867        C  0.15571866  0.53908168  0.22958770    -0.24200
H868        H  0.04540930  0.89169558  0.13701792     0.05000
H869        H  0.08653667  0.88134309  0.14327198     0.08200
H870        H  0.09032124  0.91693927  0.11306126     0.08200
H871        H  0.14468700  0.52997383  0.25394859     0.08200
H872        H  0.15020513  0.56387721  0.22185641     0.08200
H873        H  0.18944087  0.55192753  0.23008089     0.05000
C874        C  0.21467144  0.92324622  0.04948531    -0.20900
C875        C  0.19900216  0.94523150  0.06554449    -0.07400
C876        C  0.18508328  0.96758267  0.04752074     0.13400
C877        C  0.18693102  0.96695133  0.01443623    -0.20900
C878        C  0.20186229  0.94417882  0.49840951    -0.07400
C879        C  0.21647682  0.92264134  0.01624025     0.13400
C880        C  0.23196530  0.89660811  0.50089465    -0.24300
H881        H  0.22529274  0.90604215  0.06306604     0.14700
H882        H  0.17650269  0.98441336  0.00098192     0.14800
C883        C  0.16944993  0.99350647  0.06260667    -0.24200
H884        H  0.23939551  0.87981120  0.01834390     0.05000
H885        H  0.26174836  0.41840132  0.48802900     0.08200
H886        H  0.20857696  0.87405293  0.48428519     0.08200
H887        H  0.19269052  0.01584924  0.07940718     0.08200
H888        H  0.14026348  0.97372730  0.07503799     0.08200
H889        H  0.16308196  0.01121721  0.04485382     0.05000
C890        C  0.32120921  0.79751606  0.37168287    -0.20900
C891        C  0.31184215  0.81277342  0.39876007    -0.07400
C892        C  0.33736288  0.85464811  0.40701162     0.13400
C893        C  0.37141699  0.87982563  0.38798095    -0.20900
C894        C  0.38002752  0.86473602  0.36028713    -0.07400
C895        C  0.35425472  0.82268367  0.35215308     0.13400
C896        C  0.36078707  0.80345536  0.32295822    -0.24300
H897        H  0.30193380  0.76544647  0.36539507     0.14700
H898        H  0.39029314  0.91202732  0.39399300     0.14800
C899        C  0.32760937  0.87368860  0.43460150    -0.24200
H900        H  0.33895163  0.76993995  0.32159573     0.05000
H901        H  0.39205358  0.80774246  0.32311452     0.08200
H902        H  0.35591002  0.81702102  0.30136792     0.08200
H903        H  0.32998483  0.85993473  0.45698139     0.08200
H904        H  0.29613474  0.86877922  0.43190334     0.08200
H905        H  0.34914480  0.90725007  0.43627718     0.05000
C906        C  0.12553099  0.67328452  0.35172599    -0.20900
C907        C  0.11469269  0.63211102  0.35586941    -0.07400
C908        C  0.13060209  0.62177202  0.38239951     0.13400
C909        C  0.15874597  0.65303135  0.40278756    -0.20900
C910        C  0.17215076  0.69448611  0.39695791    -0.07400
C911        C  0.15435264  0.70457569  0.37161032     0.13400
C912        C  0.16549240  0.74832490  0.36546078    -0.24300
H913        H  0.11288629  0.68132330  0.33182122     0.14700
H914        H  0.17193723  0.64522509  0.42246332     0.14800
C915        C  0.11810825  0.57795602  0.38935192    -0.24200
H916        H  0.14691565  0.75038792  0.34590909     0.05000
H917        H  0.19818689  0.76681302  0.35872672     0.08200
H918        H  0.15990708  0.76174624  0.38699403     0.08200
H919        H  0.12925576  0.56572715  0.37039931     0.08200
H920        H  0.08421313  0.55920403  0.39093647     0.08200
H921        H  0.13138858  0.57512337  0.41199753     0.05000
C922        C  0.33611233  0.84705410  0.15609057    -0.20900
C923        C  0.31205794  0.80683936  0.16735244    -0.07400
C924        C  0.32512172  0.79534336  0.19490195     0.13400
C925        C  0.35973891  0.82482951  0.21143927    -0.20900
C926        C  0.38271534  0.86559862  0.20121633    -0.07400
C927        C  0.37120514  0.87661011  0.17264531     0.13400
C928        C  0.39448656  0.91961953  0.16009571    -0.24300
H929        H  0.32659000  0.85583363  0.13476374     0.14700
H930        H  0.36876318  0.81594538  0.23298327     0.14800
C931        C  0.30357559  0.75190570  0.20691270    -0.24200
H932        H  0.42657032  0.92780446  0.15500731     0.05000
H933        H  0.39430377  0.94152032  0.17765720     0.08200
H934        H  0.38068985  0.92285429  0.13786738     0.08200
H935        H  0.30086299  0.73049297  0.18767628     0.08200
H936        H  0.27276444  0.74349187  0.21591558     0.08200
H937        H  0.32063179  0.74796957  0.22673907     0.05000
C938        C  0.12860801  0.62046918  0.18817416    -0.20900
C939        C  0.11562480  0.63408795  0.21430466    -0.07400
C940        C  0.12908576  0.67644219  0.21742706     0.13400
C941        C  0.15711135  0.70413021  0.19555426    -0.20900
C942        C  0.17130164  0.69067102  0.17013842    -0.07400
C943        C  0.15605577  0.64818145  0.16594890     0.13400
C944        C  0.17016544  0.63210987  0.13900463    -0.24300
H945        H  0.11758169  0.58796423  0.18535897     0.14700
H946        H  0.16885413  0.73674222  0.19870810     0.14800
C947        C  0.11565064  0.69298147  0.24456212    -0.24200
H948        H  0.15622839  0.59825540  0.13987832     0.05000
H949        H  0.20399409  0.64595404  0.14001733     0.08200
H950        H  0.16121447  0.63985815  0.11620422     0.08200
H951        H  0.12369894  0.68426221  0.26734636     0.08200
H952        H  0.08204418  0.68054735  0.24324418     0.08200
H953        H  0.13065841  0.72695008  0.24405514     0.05000
C954        C  0.20277612  0.74142245  0.01563477    -0.20900
C955        C  0.24006929  0.75446313  0.49983354    -0.07400
C956        C  0.27576181  0.76546319  0.01813761     0.13400
C957        C  0.27320962  0.76376835  0.05124517    -0.20900
C958        C  0.23606652  0.75097990  0.06708210    -0.07400
C959        C  0.20024876  0.73966440  0.04886220     0.13400
C960        C  0.15946755  0.72692171  0.06401949    -0.24300
H961        H  0.17536829  0.73300455  0.00184826     0.14700
H962        H  0.30066486  0.77209919  0.06494016     0.14800
C963        C  0.31661120  0.77772633  0.00327375    -0.24200
H964        H  0.13563592  0.72189498  0.04623423     0.05000
H965        H  0.16247439  0.75121195  0.08064169     0.08200
H966        H  0.14847877  0.69768342  0.07681536     0.08200
H967        H  0.32837313  0.80786285  0.49087016     0.08200
H968        H  0.31368779  0.75420330  0.48638795     0.08200
H969        H  0.34005694  0.78197426  0.02116781     0.05000
C970        C  0.20595840  0.72197980  0.65124421     0.79700
N971        N  0.20423758  0.72235493  0.61915005    -0.78600
C972        C  0.23685177  0.75084263  0.60239064     0.82100
N973        N  0.27162871  0.77818945  0.61816846    -0.78600
C974        C  0.27387803  0.77766171  0.65018460     0.82200
N975        N  0.24064006  0.74987597  0.66644142    -0.80300
C976        C  0.20708159  0.72658624  0.91564372     0.79700
N977        N  0.20700749  0.72629867  0.94780291    -0.78600
C978        C  0.24024547  0.75489317  0.96451392     0.82100
N979        N  0.27361389  0.78360984  0.94859556    -0.78600
C980        C  0.27426099  0.78387919  0.91650965     0.82200
N981        N  0.24093969  0.75506427  0.90033593    -0.80300
C982        C  0.22995303  0.94531746  0.64946347     0.79700
N983        N  0.20100305  0.94976880  0.66514795    -0.78600
C984        C  0.17033976  0.95104491  0.64916043     0.82100
N985        N  0.16935966  0.94855357  0.61714946    -0.78600
C986        C  0.19850044  0.94482645  0.60094899     0.82200
N987        N  0.22882354  0.94313780  0.61734966    -0.80300
C988        C  0.23247094  0.94698736  0.91388137     0.79700
N989        N  0.20312086  0.95171806  0.89914200    -0.78600
C990        C  0.17351646  0.95399500  0.91579787     0.82100
N991        N  0.17352354  0.95118357  0.94773465    -0.78600
C992        C  0.20229692  0.94572960  0.96304748     0.82200
N993        N  0.23199596  0.94399276  0.94591004    -0.80300
C994        C  0.51708427  0.75308763  0.65030733     0.79700
N995        N  0.51132230  0.71858917  0.66478809    -0.78600
C996        C  0.50767085  0.68617785  0.64783182     0.82100
N997        N  0.50918460  0.68830748  0.61573334    -0.78600
C998        C  0.51492412  0.72279760  0.60075297     0.82200
N999        N  0.51819328  0.75480145  0.61824329    -0.80300
C1000       C  0.51277933  0.75191250  0.91378942     0.79700
N1001       N  0.50676387  0.71719134  0.89900576    -0.78600
C1002       C  0.50272090  0.68473161  0.91569869     0.82100
N1003       N  0.50378035  0.68680520  0.94765528    -0.78600
C1004       C  0.50873078  0.72073487  0.96312867     0.82200
N1005       N  0.51329852  0.75346006  0.94604918    -0.80300
O1006       O  0.37869594  0.48830514  0.74538895    -0.88700
C1007       C  0.08901329  0.60190232  0.83086030     1.11300
O1008       O  0.43690457  0.96724843  0.78192561    -1.36500
O1009       O  0.05936723  0.60513035  0.74947247    -0.90200
O1010       O  0.35380765  0.92123822  0.74539248    -0.90900
O1011       O  0.44397921  0.92988535  0.71480256    -0.79700
O1012       O  0.46947099  0.54837256  0.75295969    -1.01800
C1013       C  0.06289652  0.98594622  0.72462260     1.21400
O1014       O  0.49007088  0.93567926  0.78181573    -1.36700
Mn1015     Mn  0.48245456  0.97396261  0.81680497     1.82100
O1016       O  0.02894779  0.98128828  0.71584488    -0.78800
O1017       O  0.10135756  0.57928958  0.74882668    -0.88200
C1018       C  0.06167723  0.98374843  0.84020526     1.12400
C1019       C  0.09039209  0.60421758  0.73887687     1.07200
O1020       O  0.44213405  0.92782969  0.84832760    -0.79700
O1021       O  0.02121559  0.52048119  0.78287298    -1.33400
O1022       O  0.40980525  0.88784806  0.81044723    -0.98900
C1023       C  0.50450572  0.86710458  0.73530430     1.05900
Mn1024     Mn  0.08260863  0.53345868  0.78339354     1.48600
O1025       O  0.46859327  0.85569817  0.74551425    -0.88100
Mn1026     Mn  0.38376653  0.90736600  0.78079679     1.49600
O1027       O  0.37747655  0.48767004  0.81635867    -0.92000
C1028       C  0.47333129  0.54486315  0.72469182     1.19100
C1029       C  0.35290809  0.95179134  0.82653433     1.11100
Mn1030     Mn  0.48322993  0.97508662  0.74790018     1.81000
O1031       O  0.06764482  0.98703935  0.81194831    -0.97200
Mn1032     Mn  0.42319727  0.51527235  0.78170553     1.49300
C1033       C  0.35418700  0.95296817  0.73499405     1.07700
Mn1034     Mn  0.04958826  0.94192883  0.78194140     1.49900
C1035       C  0.50389907  0.86660745  0.82760427     1.10600
O1036       O  0.41097256  0.88878993  0.75141118    -1.03000
O1037       O  0.10026493  0.57746458  0.82003876    -0.92600
C1038       C  0.41495782  0.89576461  0.72320236     1.20600
O1039       O  0.06974012  0.98842239  0.75293599    -1.03300
O1040       O  0.05828423  0.60339933  0.81989453    -0.90700
O1041       O  0.03588591  0.89733537  0.81673535    -0.90300
O1042       O  0.35232725  0.91996918  0.81576359    -0.90400
Mn1043     Mn  0.01462009  0.57382544  0.78365407     1.47900
O1044       O  0.02797663  0.97920235  0.84950244    -0.78800
C1045       C  0.41299710  0.89405433  0.83880973     1.14900
O1046       O  0.47808815  0.51556068  0.71589652    -0.77600
O1047       O  0.47587661  0.51365286  0.84923787    -0.77200
Mn1048     Mn  0.44183528  0.87411917  0.78113556     1.51100
O1049       O  0.03634493  0.89812670  0.74633150    -0.89500
O1050       O  0.46801320  0.54662865  0.81229484    -0.97100
O1051       O  0.46803907  0.85549875  0.81714159    -0.92100
C1052       C  0.47025627  0.54236658  0.84057377     1.12700
C1053       C  0.46347453  0.63270147  0.87478064    -0.20900
C1054       C  0.49277224  0.64602978  0.89899437    -0.07400
C1055       C  0.01163819  0.62260553  0.90611613     0.13400
C1056       C  0.00138559  0.58710494  0.88805693    -0.20900
C1057       C  0.47316403  0.57462983  0.86284169    -0.07400
C1058       C  0.45321358  0.59748502  0.85677278     0.13400
C1059       C  0.42048048  0.58516433  0.83180782    -0.24300
H1060       H  0.44838144  0.65017429  0.86988391     0.14700
H1061       H  0.01712235  0.57019683  0.89264117     0.14800
C1062       C  0.04410736  0.63597032  0.93142639    -0.24200
H1063       H  0.40851959  0.60674943  0.83069938     0.05000
H1064       H  0.39425137  0.55470720  0.83727982     0.08200
H1065       H  0.43269214  0.58487146  0.80825190     0.08200
H1066       H  0.03080758  0.63562798  0.95484118     0.08200
H1067       H  0.06955821  0.66737655  0.92640998     0.08200
H1068       H  0.05715775  0.61530337  0.93260432     0.05000
C1069       C  0.48960579  0.80199669  0.90121624    -0.20900
C1070       C  0.51543932  0.78608737  0.89434007    -0.07400
C1071       C  0.04091322  0.80081855  0.86736153     0.13400
C1072       C  0.03754374  0.82835333  0.84691340    -0.20900
C1073       C  0.50907885  0.84135758  0.85229124    -0.07400
C1074       C  0.48600874  0.82926739  0.88049728     0.13400
C1075       C  0.45783232  0.84527723  0.88896479    -0.24300
H1076       H  0.47075739  0.79162232  0.92217079     0.14700
H1077       H  0.05619380  0.83851557  0.82584268     0.14800
C1078       C  0.07205579  0.78793865  0.86013027    -0.24200
H1079       H  0.44379601  0.83458077  0.91254031     0.05000
H1080       H  0.43273139  0.83419169  0.87137919     0.08200
H1081       H  0.47513251  0.87932114  0.88933737     0.08200
H1082       H  0.05656632  0.75472022  0.85445591     0.08200
H1083       H  0.09278270  0.79471665  0.88077025     0.08200
H1084       H  0.09120705  0.80455365  0.83950377     0.05000
C1085       C  0.96743518  0.63461708  0.68811445    -0.20900
C1086       C  0.49736681  0.64759749  0.66469149    -0.07400
C1087       C  0.51773396  0.62510174  0.65962674     0.13400
C1088       C  0.50738106  0.59017126  0.67818071    -0.20900
C1089       C  0.47823162  0.57795832  0.70255957    -0.07400
C1090       C  0.95800388  0.60081625  0.70727937     0.13400
C1091       C  0.92684477  0.59076396  0.73286181    -0.24300
H1092       H  0.95177086  0.65178739  0.69197423     0.14700
H1093       H  0.52382548  0.57370581  0.67478487     0.14800
C1094       C  0.55208246  0.63925820  0.63617898    -0.24200
H1095       H  0.91331671  0.61103856  0.73230141     0.05000
H1096       H  0.94171578  0.59511016  0.75616022     0.08200
H1097       H  0.90144736  0.55896928  0.73000942     0.08200
H1098       H  0.57652685  0.67096599  0.64220321     0.08200
H1099       H  0.54037177  0.63862750  0.61200064     0.08200
H1100       H  0.56600709  0.61932517  0.63623320     0.05000
C1101       C  0.48946248  0.79914063  0.66312682    -0.20900
C1102       C  0.51812900  0.78666981  0.66952989    -0.07400
C1103       C  0.04493721  0.80425233  0.69553974     0.13400
C1104       C  0.04089984  0.83191862  0.71556574    -0.20900
C1105       C  0.51003617  0.84174049  0.71081918    -0.07400
C1106       C  0.48477676  0.82609091  0.68361609     0.13400
C1107       C  0.45279962  0.83751704  0.67611350    -0.24300
H1108       H  0.46928114  0.78617751  0.64283170     0.14700
H1109       H  0.06101309  0.84460788  0.73592245     0.14800
C1110       C  0.07824928  0.79420734  0.70216900    -0.24200
H1111       H  0.43745024  0.82453070  0.65307252     0.05000
H1112       H  0.46704260  0.87137895  0.67513593     0.08200
H1113       H  0.42903644  0.82513047  0.69458088     0.08200
H1114       H  0.09810270  0.80123114  0.68111321     0.08200
H1115       H  0.06467087  0.76131027  0.70805880     0.08200
H1116       H  0.09789988  0.81235925  0.72241821     0.05000
C1117       C  0.03713735  0.75742717  0.51449992    -0.20900
C1118       C  0.50885539  0.72144224  0.99839029    -0.07400
C1119       C  0.48232444  0.68656074  0.51626540     0.13400
C1120       C  0.48528537  0.68819647  0.54939665    -0.20900
C1121       C  0.51390434  0.72382802  0.56554690    -0.07400
C1122       C  0.04002579  0.75906099  0.54776027     0.13400
C1123       C  0.07230018  0.79802971  0.56346898    -0.24300
H1124       H  0.05797611  0.78413858  0.00099088     0.14700
H1125       H  0.46464791  0.66139262  0.56288920     0.14800
C1126       C  0.44938705  0.64761481  0.50088502    -0.24200
H1127       H  0.09186631  0.82141075  0.54590387     0.05000
H1128       H  0.09249575  0.79144427  0.57847893     0.08200
H1129       H  0.05765085  0.81156628  0.57814445     0.08200
H1130       H  0.46301303  0.63246065  0.98720097     0.08200
H1131       H  0.42980947  0.65451529  0.98519125     0.08200
H1132       H  0.42891203  0.62513132  0.51861823     0.05000
C1133       C  0.33515645  0.97562608  0.87601551    -0.20900
C1134       C  0.32255548  0.94705962  0.85103054    -0.07400
C1135       C  0.28054330  0.91679954  0.84844296     0.13400
C1136       C  0.25240698  0.91674281  0.87023101    -0.20900
C1137       C  0.26483702  0.94606786  0.89459385    -0.07400
C1138       C  0.30691758  0.97594903  0.89753543     0.13400
C1139       C  0.32304575  0.01016884  0.92168063    -0.24300
H1140       H  0.36728047  0.99869506  0.87830971     0.14700
H1141       H  0.22011782  0.89421344  0.86774351     0.14800
C1142       C  0.26464155  0.88589263  0.82176376    -0.24200
H1143       H  0.34559205  0.00803825  0.93730997     0.05000
H1144       H  0.29727005  0.51350383  0.93357563     0.08200
H1145       H  0.33863437  0.04012954  0.90942094     0.08200
H1146       H  0.28156546  0.36307136  0.82903824     0.08200
H1147       H  0.27264036  0.90207723  0.79881733     0.08200
H1148       H  0.23078551  0.86599303  0.82251494     0.05000
C1149       C  0.07811328  0.95934074  0.89024261    -0.20900
C1150       C  0.09149867  0.98000785  0.86134762    -0.07400
C1151       C  0.13240433  0.99335424  0.85172689     0.13400
C1152       C  0.15795982  0.98537426  0.87074858    -0.20900
C1153       C  0.14429246  0.96329977  0.89887012    -0.07400
C1154       C  0.10373878  0.95041971  0.90896795     0.13400
C1155       C  0.08647470  0.92575160  0.93853959    -0.24300
H1156       H  0.04687111  0.94859514  0.89761109     0.14700
H1157       H  0.18906991  0.99597092  0.86307592     0.14800
C1158       C  0.14990190  0.01543577  0.82110253    -0.24200
H1159       H  0.05365992  0.91627289  0.94170173     0.05000
H1160       H  0.10355858  0.44483642  0.95955837     0.08200
H1161       H  0.08878111  0.89752107  0.93728589     0.08200
H1162       H  0.14632631  0.54283163  0.81932605     0.08200
H1163       H  0.13425939  0.99424090  0.80097842     0.08200
H1164       H  0.18309678  0.02606287  0.81887515     0.05000
C1165       C  0.25702905  0.91056765  0.68332071    -0.20900
C1166       C  0.26396525  0.94597179  0.66753323    -0.07400
C1167       C  0.30179002  0.98245046  0.67166828     0.13400
C1168       C  0.33121380  0.98318517  0.69259913    -0.20900
C1169       C  0.32386879  0.94829980  0.70985968    -0.07400
C1170       C  0.28644471  0.91094220  0.70415477     0.13400
C1171       C  0.27611348  0.87146590  0.72047401    -0.24300
H1172       H  0.22786556  0.88263541  0.67988910     0.14700
H1173       H  0.35985565  0.01160383  0.69593722     0.14800
C1174       C  0.31053823  0.02101720  0.65473711    -0.24200
H1175       H  0.24548021  0.84590191  0.71330248     0.05000
H1176       H  0.27573672  0.87537591  0.74642430     0.08200
H1177       H  0.29888572  0.86217240  0.71422067     0.08200
H1178       H  0.29153723  0.52952967  0.65716805     0.08200
H1179       H  0.30905479  0.01573491  0.62882375     0.08200
H1180       H  0.34144454  0.04702666  0.66072530     0.05000
C1181       C  0.07429659  0.95090186  0.67885128    -0.20900
C1182       C  0.09120246  0.98166907  0.70234889    -0.07400
C1183       C  0.13450998  0.50330531  0.70697981     0.13400
C1184       C  0.15879175  0.99226059  0.68906091    -0.20900
C1185       C  0.14185289  0.96073636  0.66640541    -0.07400
C1186       C  0.09900448  0.94003621  0.66092303     0.13400
C1187       C  0.07890541  0.90502510  0.63757533    -0.24300
H1188       H  0.04132869  0.93382799  0.67558670     0.14700
H1189       H  0.19194779  0.50882304  0.69298097     0.14800
C1190       C  0.15560169  0.53914427  0.72949570    -0.24200
H1191       H  0.04502652  0.89096690  0.63748697     0.05000
H1192       H  0.08630243  0.88084638  0.64378468     0.08200
H1193       H  0.08979582  0.91608218  0.61336770     0.08200
H1194       H  0.14460198  0.53007024  0.75386821     0.08200
H1195       H  0.15006947  0.56391905  0.72175153     0.08200
H1196       H  0.18932663  0.55200506  0.72996735     0.05000
C1197       C  0.21423768  0.92265498  0.54960564    -0.20900
C1198       C  0.19845712  0.94455713  0.56564119    -0.07400
C1199       C  0.18434351  0.96672006  0.54758199     0.13400
C1200       C  0.18621806  0.96607828  0.51450063    -0.20900
C1201       C  0.20238986  0.94489997  0.99832056    -0.07400
C1202       C  0.21603385  0.92201119  0.51635687     0.13400
C1203       C  0.23232693  0.89718284  0.00075254    -0.24300
H1204       H  0.22496830  0.90556049  0.56320840     0.14700
H1205       H  0.17568039  0.98343573  0.50102954     0.14800
C1206       C  0.16847032  0.99246746  0.56261944    -0.24200
H1207       H  0.23906928  0.87928012  0.51850221     0.05000
H1208       H  0.26139101  0.41803940  0.98783844     0.08200
H1209       H  0.20890854  0.87466335  0.98414266     0.08200
H1210       H  0.19163878  0.01493660  0.57939624     0.08200
H1211       H  0.13932535  0.97257182  0.57506251     0.08200
H1212       H  0.16193862  0.01002906  0.54483813     0.05000
C1213       C  0.32111815  0.79745089  0.87158993    -0.20900
C1214       C  0.31188160  0.81265067  0.89876856    -0.07400
C1215       C  0.33754083  0.85447628  0.90711254     0.13400
C1216       C  0.37154325  0.87967103  0.88804126    -0.20900
C1217       C  0.37999959  0.86465041  0.86023946    -0.07400
C1218       C  0.35414166  0.82263393  0.85204390     0.13400
C1219       C  0.36057721  0.80345979  0.82277388    -0.24300
H1220       H  0.30176213  0.76541523  0.86523833     0.14700
H1221       H  0.39051555  0.91183924  0.89412471     0.14800
C1222       C  0.32800974  0.87346177  0.93486282    -0.24200
H1223       H  0.33870848  0.76995416  0.82137387     0.05000
H1224       H  0.39183440  0.80771436  0.82285795     0.08200
H1225       H  0.35567492  0.81710063  0.80123850     0.08200
H1226       H  0.33045036  0.85957662  0.95715035     0.08200
H1227       H  0.29656214  0.86866829  0.93232277     0.08200
H1228       H  0.34963364  0.90699986  0.93660260     0.05000
C1229       C  0.12537421  0.67333304  0.85178772    -0.20900
C1230       C  0.11459685  0.63216131  0.85585275    -0.07400
C1231       C  0.13055961  0.62179874  0.88233862     0.13400
C1232       C  0.15872438  0.65303305  0.90273146    -0.20900
C1233       C  0.17207956  0.69448904  0.89696703    -0.07400
C1234       C  0.15419506  0.70459921  0.87169549     0.13400
C1235       C  0.16523647  0.74834269  0.86566462    -0.24300
H1236       H  0.11267823  0.68139421  0.83192941     0.14700
H1237       H  0.17196755  0.64520836  0.92236048     0.14800
C1238       C  0.11810139  0.57798193  0.88924403    -0.24200
H1239       H  0.14663156  0.75043157  0.84614712     0.05000
H1240       H  0.19792877  0.76691615  0.85894802     0.08200
H1241       H  0.15960600  0.76164376  0.88724865     0.08200
H1242       H  0.12925605  0.56580008  0.87026424     0.08200
H1243       H  0.08420868  0.55920786  0.89083975     0.08200
H1244       H  0.13140376  0.57512688  0.91187081     0.05000
C1245       C  0.33654273  0.84690635  0.65589847    -0.20900
C1246       C  0.31234666  0.80677624  0.66729344    -0.07400
C1247       C  0.32530267  0.79537264  0.69494851     0.13400
C1248       C  0.35988990  0.82490121  0.71148557    -0.20900
C1249       C  0.38294641  0.86561979  0.70116316    -0.07400
C1250       C  0.37160858  0.87650338  0.67245569     0.13400
C1251       C  0.39502367  0.91943192  0.65976968    -0.24300
H1252       H  0.32713242  0.85560905  0.63447696     0.14700
H1253       H  0.36881373  0.81609311  0.73311666     0.14800
C1254       C  0.30367167  0.75199470  0.70708482    -0.24200
H1255       H  0.42713120  0.92754513  0.65486675     0.05000
H1256       H  0.39473996  0.94144350  0.67717330     0.08200
H1257       H  0.38139484  0.92255523  0.63741022     0.08200
H1258       H  0.30094773  0.73047358  0.68793446     0.08200
H1259       H  0.27286381  0.74367865  0.71603460     0.08200
H1260       H  0.32067507  0.74811582  0.72698023     0.05000
C1261       C  0.12874050  0.62056063  0.68819692    -0.20900
C1262       C  0.11563017  0.63417433  0.71425421    -0.07400
C1263       C  0.12904084  0.67652638  0.71732150     0.13400
C1264       C  0.15715704  0.70421498  0.69548840    -0.20900
C1265       C  0.17147270  0.69075261  0.67015712    -0.07400
C1266       C  0.15628362  0.64826852  0.66601738     0.13400
C1267       C  0.17055676  0.63220255  0.63917632    -0.24300
H1268       H  0.11773303  0.58805763  0.68540033     0.14700
H1269       H  0.16885538  0.73682526  0.69860075     0.14800
C1270       C  0.11543448  0.69306191  0.74434796    -0.24200
H1271       H  0.15664983  0.59835299  0.64008031     0.05000
H1272       H  0.20438512  0.64608294  0.64029879     0.08200
H1273       H  0.16170758  0.63991660  0.61631677     0.08200
H1274       H  0.12338957  0.68439151  0.76719373     0.08200
H1275       H  0.08182620  0.68057896  0.74291559     0.08200
H1276       H  0.13040134  0.72702621  0.74380611     0.05000
C1277       C  0.20279059  0.74136981  0.51565128    -0.20900
C1278       C  0.24003690  0.75433731  0.99983896    -0.07400
C1279       C  0.27585235  0.76577808  0.51811364     0.13400
C1280       C  0.27332623  0.76404580  0.55121948    -0.20900
C1281       C  0.23616353  0.75106456  0.56708157    -0.07400
C1282       C  0.20029466  0.73959777  0.54888098     0.13400
C1283       C  0.15948330  0.72666989  0.56405639    -0.24300
H1284       H  0.17534043  0.73281936  0.50188020     0.14700
H1285       H  0.30082800  0.77250686  0.56489156     0.14800
C1286       C  0.31675501  0.77830067  0.50323558    -0.24200
H1287       H  0.13560555  0.72154205  0.54628342     0.05000
H1288       H  0.16238172  0.75090587  0.58068962     0.08200
H1289       H  0.14862277  0.69744288  0.57684007     0.08200
H1290       H  0.32840130  0.80729618  0.99088933     0.08200
H1291       H  0.31338750  0.75355146  0.98644187     0.08200
H1292       H  0.34026238  0.78268624  0.52111760     0.05000
C1293       C  0.70555451  0.22199392  0.15130703     0.79700
N1294       N  0.70393952  0.22236441  0.11920870    -0.78600
C1295       C  0.73654157  0.25097308  0.10250928     0.82100
N1296       N  0.77119906  0.27844476  0.11834701    -0.78600
C1297       C  0.77333430  0.27791492  0.15036722     0.82200
N1298       N  0.74011838  0.25000300  0.16657027    -0.80300
C1299       C  0.70733111  0.22661288  0.41568273     0.79700
N1300       N  0.70718215  0.22635890  0.44784196    -0.78600
C1301       C  0.74035632  0.25501342  0.46457635     0.82100
N1302       N  0.77373115  0.28376118  0.44868352    -0.78600
C1303       C  0.77444607  0.28399480  0.41659981     0.82200
N1304       N  0.74119692  0.25511740  0.40040200    -0.80300
C1305       C  0.73045588  0.44559727  0.14932699     0.79700
N1306       N  0.70145868  0.44988059  0.16512315    -0.78600
C1307       C  0.67096498  0.45156180  0.14919226     0.82100
N1308       N  0.67015851  0.44955693  0.11716449    -0.78600
C1309       C  0.69930172  0.44593643  0.10088675     0.82200
N1310       N  0.72947203  0.44390243  0.11720903    -0.80300
C1311       C  0.73258135  0.44734156  0.41398287     0.79700
N1312       N  0.70317713  0.45189624  0.39916014    -0.78600
C1313       C  0.67352399  0.45415730  0.41577764     0.82100
N1314       N  0.67355220  0.45148842  0.44772826    -0.78600
C1315       C  0.70242736  0.44625480  0.46309915     0.82200
N1316       N  0.73221813  0.44463541  0.44601564    -0.80300
C1317       C  0.01649691  0.25284284  0.15020194     0.79700
N1318       N  0.01059442  0.21829702  0.16467795    -0.78600
C1319       C  0.00686667  0.18583700  0.14774981     0.82100
N1320       N  0.00849581  0.18799889  0.11564922    -0.78600
C1321       C  0.01439896  0.22254882  0.10065716     0.82200
N1322       N  0.01772130  0.25459055  0.11813684    -0.80300
C1323       C  0.01298876  0.25193530  0.41369181     0.79700
N1324       N  0.00705052  0.21725180  0.39888327    -0.78600
C1325       C  0.00305482  0.18480598  0.41556452     0.82100
N1326       N  0.00403013  0.18681835  0.44752282    -0.78600
C1327       C  0.00886429  0.22068709  0.46301767     0.82200
N1328       N  0.01342452  0.25342197  0.44595486    -0.80300
O1329       O  0.87875568  0.98854973  0.24571251    -0.88700
C1330       C  0.58921083  0.10182723  0.33098175     1.11300
O1331       O  0.93686330  0.46716585  0.28182894    -1.36500
O1332       O  0.55936060  0.10502330  0.24967730    -0.90200
O1333       O  0.85350791  0.42071162  0.24559001    -0.90900
O1334       O  0.94384424  0.42961983  0.21485649    -0.79700
O1335       O  0.96958567  0.04834383  0.25320743    -1.01800
C1336       C  0.56298630  0.48589908  0.22456444     1.21400
O1337       O  0.99007300  0.43566706  0.28182075    -1.36700
Mn1338     Mn  0.98246277  0.47407001  0.31672580     1.82100
O1339       O  0.52897420  0.48106185  0.21574587    -0.78800
O1340       O  0.60135978  0.07919792  0.24889275    -0.88200
C1341       C  0.56165858  0.48383072  0.34013392     1.12400
C1342       C  0.59033813  0.10410542  0.23899004     1.07200
O1343       O  0.94223910  0.42804000  0.34837595    -0.79700
O1344       O  0.52130141  0.02041313  0.28302763    -1.33400
O1345       O  0.90995134  0.38787764  0.31058903    -0.98900
C1346       C  0.00444875  0.36708313  0.23529777     1.05900
Mn1347     Mn  0.58269500  0.03337432  0.28347004     1.48600
O1348       O  0.96855657  0.35565860  0.24556142    -0.88100
Mn1349     Mn  0.88373981  0.40721884  0.28097853     1.49600
O1350       O  0.87766317  0.98760458  0.31662862    -0.92000
C1351       C  0.97340948  0.04493300  0.22492342     1.19100
C1352       C  0.85295728  0.45186350  0.32662210     1.11100
Mn1353     Mn  0.98318234  0.47493222  0.24781469     1.81000
O1354       O  0.56760314  0.48706112  0.31187523    -0.97200
Mn1355     Mn  0.92333821  0.01529355  0.28196017     1.49300
C1356       C  0.85406465  0.45237016  0.23485122     1.07700
Mn1357     Mn  0.54962147  0.44193751  0.28190014     1.49900
C1358       C  0.00410925  0.36673021  0.32762881     1.10600
O1359       O  0.91080843  0.38856342  0.25152348    -1.03000
O1360       O  0.60043854  0.07738894  0.32012152    -0.92600
C1361       C  0.91473450  0.39557763  0.22331047     1.20600
O1362       O  0.56976621  0.48841503  0.25288330    -1.03300
O1363       O  0.55844479  0.10330717  0.32008888    -0.90700
O1364       O  0.53604862  0.39741544  0.31671764    -0.90300
O1365       O  0.85254645  0.42003176  0.31606214    -0.90400
Mn1366     Mn  0.51471965  0.07375148  0.28390471     1.47900
O1367       O  0.52801381  0.47942215  0.34943379    -0.78800
C1368       C  0.91318511  0.39416593  0.33893758     1.14900
O1369       O  0.97820056  0.01568222  0.21604047    -0.77600
O1370       O  0.97597686  0.01345446  0.34939209    -0.77200
Mn1371     Mn  0.94187476  0.37408814  0.28122746     1.51100
O1372       O  0.53633703  0.39808926  0.24629560    -0.89500
O1373       O  0.96818058  0.04655662  0.31251940    -0.97100
O1374       O  0.96822770  0.35559033  0.31720849    -0.92100
C1375       C  0.97039920  0.04221082  0.34078204     1.12700
C1376       C  0.96331101  0.13228349  0.37507653    -0.20900
C1377       C  0.99319639  0.14613865  0.39887443    -0.07400
C1378       C  0.51263079  0.12316657  0.40574228     0.13400
C1379       C  0.50227112  0.08751730  0.38785992    -0.20900
C1380       C  0.97335406  0.07445198  0.36306755    -0.07400
C1381       C  0.95286600  0.09685262  0.35728202     0.13400
C1382       C  0.91916111  0.08363360  0.33302527    -0.24300
H1383       H  0.94780024  0.14941583  0.37042891     0.14700
H1384       H  0.51846762  0.07099637  0.39216383     0.14800
C1385       C  0.54582058  0.13722821  0.43052414    -0.24200
H1386       H  0.90711642  0.10514744  0.33188952     0.05000
H1387       H  0.89320287  0.05340715  0.33941242     0.08200
H1388       H  0.93028157  0.08240838  0.30920885     0.08200
H1389       H  0.53310379  0.13712495  0.45414392     0.08200
H1390       H  0.57090088  0.16865896  0.42505987     0.08200
H1391       H  0.55921501  0.11685015  0.43153273     0.05000
C1392       C  0.99003599  0.30224207  0.40126544    -0.20900
C1393       C  0.01568424  0.28614953  0.39426658    -0.07400
C1394       C  0.54102470  0.30075970  0.36724326     0.13400
C1395       C  0.53766226  0.32831931  0.34681860    -0.20900
C1396       C  0.00936061  0.34151212  0.35229951    -0.07400
C1397       C  0.98648518  0.32958809  0.38059887     0.13400
C1398       C  0.95859813  0.34588610  0.38923081    -0.24300
H1399       H  0.97130864  0.29197614  0.42228458     0.14700
H1400       H  0.55621053  0.33839334  0.32569258     0.14800
C1401       C  0.57208162  0.28779131  0.35993274    -0.24200
H1402       H  0.94468861  0.33527994  0.41285457     0.05000
H1403       H  0.93340397  0.33495147  0.37174546     0.08200
H1404       H  0.97609629  0.37992625  0.38958141     0.08200
H1405       H  0.55652239  0.25457652  0.35423717     0.08200
H1406       H  0.59284556  0.29451512  0.38054062     0.08200
H1407       H  0.59120704  0.30439594  0.33929274     0.05000
C1408       C  0.46764260  0.13503819  0.18887855    -0.20900
C1409       C  0.99665749  0.14730156  0.16469591    -0.07400
C1410       C  0.01635411  0.12425589  0.15910432     0.13400
C1411       C  0.00627377  0.08951275  0.17781431    -0.20900
C1412       C  0.97811627  0.07802372  0.20285961    -0.07400
C1413       C  0.45865169  0.10153705  0.20826739     0.13400
C1414       C  0.42898608  0.09261310  0.23484610    -0.24300
H1415       H  0.45254596  0.15265384  0.19321675     0.14700
H1416       H  0.02218773  0.07260578  0.17396038     0.14800
C1417       C  0.04976752  0.13760772  0.13489898    -0.24200
H1418       H  0.41560493  0.11302202  0.23453328     0.05000
H1419       H  0.44518923  0.09779610  0.25767808     0.08200
H1420       H  0.40333437  0.06076735  0.23300535     0.08200
H1421       H  0.07465131  0.16932110  0.14035152     0.08200
H1422       H  0.03721413  0.13660798  0.11097803     0.08200
H1423       H  0.06338914  0.11740415  0.13468492     0.05000
C1424       C  0.98940720  0.29939876  0.16293846    -0.20900
C1425       C  0.01772244  0.28650207  0.16945498    -0.07400
C1426       C  0.54427746  0.30364229  0.19563115     0.13400
C1427       C  0.54040960  0.33139634  0.21567149    -0.20900
C1428       C  0.00990468  0.34170591  0.21078912    -0.07400
C1429       C  0.98485008  0.32641275  0.18345508     0.13400
C1430       C  0.95321919  0.33828139  0.17585674    -0.24300
H1431       H  0.96937584  0.28671188  0.14253448     0.14700
H1432       H  0.56032066  0.34375557  0.23616793     0.14800
C1433       C  0.57715095  0.29303842  0.20247538    -0.24200
H1434       H  0.93795455  0.32547807  0.15275829     0.05000
H1435       H  0.96775556  0.37217400  0.17495400     0.08200
H1436       H  0.92934409  0.32603267  0.19424098     0.08200
H1437       H  0.59716438  0.29989596  0.18153755     0.08200
H1438       H  0.56315823  0.26009131  0.20833607     0.08200
H1439       H  0.59672765  0.31097911  0.22282226     0.05000
C1440       C  0.53707509  0.25724263  0.01441807    -0.20900
C1441       C  0.00885349  0.22131337  0.49828346    -0.07400
C1442       C  0.98205540  0.18652594  0.01608430     0.13400
C1443       C  0.98488014  0.18809721  0.04922481    -0.20900
C1444       C  0.01355876  0.22363609  0.06543902    -0.07400
C1445       C  0.53983351  0.25879151  0.04768931     0.13400
C1446       C  0.57221723  0.29763100  0.06347361    -0.24300
H1447       H  0.55788762  0.28402626  0.50101459     0.14700
H1448       H  0.96408966  0.16131654  0.06267354     0.14800
C1449       C  0.94907251  0.14767186  0.00063056    -0.24200
H1450       H  0.59194782  0.32099010  0.04595407     0.05000
H1451       H  0.59223360  0.29083734  0.07852034     0.08200
H1452       H  0.55767073  0.31129402  0.07812500     0.08200
H1453       H  0.96333468  0.13235505  0.48701774     0.08200
H1454       H  0.92997080  0.15421854  0.48487952     0.08200
H1455       H  0.92847391  0.12519657  0.01831709     0.05000
C1456       C  0.83473435  0.47830945  0.37448957    -0.20900
C1457       C  0.82283513  0.44737270  0.35137447    -0.07400
C1458       C  0.78157394  0.41475341  0.35091339     0.13400
C1459       C  0.75341892  0.41496531  0.37257197    -0.20900
C1460       C  0.76512734  0.44662499  0.39487284    -0.07400
C1461       C  0.80647516  0.47867019  0.39594953     0.13400
C1462       C  0.82157406  0.51490125  0.41812989    -0.24300
H1463       H  0.86629275  0.50307081  0.37542193     0.14700
H1464       H  0.72161737  0.39067719  0.37160391     0.14800
C1465       C  0.76624204  0.38068541  0.32669055    -0.24200
H1466       H  0.84610305  0.51631968  0.43358323     0.05000
H1467       H  0.79784849  0.01114917  0.43529044     0.08200
H1468       H  0.83441804  0.54356189  0.40421437     0.08200
H1469       H  0.77982871  0.86407116  0.32606645     0.08200
H1470       H  0.77188583  0.39382353  0.30263443     0.08200
H1471       H  0.73281058  0.35904687  0.32890221     0.05000
C1472       C  0.57809716  0.45946544  0.39019696    -0.20900
C1473       C  0.59146572  0.48007062  0.36127826    -0.07400
C1474       C  0.63234645  0.49334495  0.35163398     0.13400
C1475       C  0.65789792  0.48535910  0.37065156    -0.20900
C1476       C  0.64425528  0.46336061  0.39880468    -0.07400
C1477       C  0.60372006  0.45054340  0.40892686     0.13400
C1478       C  0.58647271  0.42595267  0.43853452    -0.24300
H1479       H  0.54687634  0.44878594  0.39758811     0.14700
H1480       H  0.68899041  0.49591351  0.36296083     0.14800
C1481       C  0.64982424  0.51536281  0.32098820    -0.24200
H1482       H  0.55366487  0.41650051  0.44170283     0.05000
H1483       H  0.60340537  0.94430928  0.45956434     0.08200
H1484       H  0.58875856  0.39770878  0.43732647     0.08200
H1485       H  0.64647476  0.04285683  0.31959684     0.08200
H1486       H  0.63414975  0.49412136  0.30089477     0.08200
H1487       H  0.68301193  0.52596611  0.31874577     0.05000
C1488       C  0.75608940  0.41072116  0.18446970    -0.20900
C1489       C  0.76421018  0.44557842  0.16729214    -0.07400
C1490       C  0.80324997  0.48097861  0.16971741     0.13400
C1491       C  0.83250915  0.48152307  0.19072591    -0.20900
C1492       C  0.82389559  0.44746320  0.20955162    -0.07400
C1493       C  0.78549056  0.41079316  0.20513403     0.13400
C1494       C  0.77427992  0.37180334  0.22255224    -0.24300
H1495       H  0.72613467  0.38347414  0.18214138     0.14700
H1496       H  0.86211493  0.50911930  0.19279410     0.14800
C1497       C  0.81352566  0.51872435  0.15095056    -0.24200
H1498       H  0.74296677  0.34673592  0.21630678     0.05000
H1499       H  0.77508656  0.37714262  0.24837530     0.08200
H1500       H  0.79591161  0.36100030  0.21632770     0.08200
H1501       H  0.78884789  0.02981201  0.16016870     0.08200
H1502       H  0.81092362  0.51136539  0.12532376     0.08200
H1503       H  0.84522834  0.54397689  0.15585476     0.05000
C1504       C  0.57471471  0.45109272  0.17877721    -0.20900
C1505       C  0.59145456  0.48174862  0.20236133    -0.07400
C1506       C  0.63449643  0.00327306  0.20691811     0.13400
C1507       C  0.65915405  0.49239445  0.18931265    -0.20900
C1508       C  0.64236933  0.46102258  0.16653281    -0.07400
C1509       C  0.59955179  0.44035168  0.16089345     0.13400
C1510       C  0.57960853  0.40549416  0.13740211    -0.24300
H1511       H  0.54177128  0.43402842  0.17538314     0.14700
H1512       H  0.69189501  0.00881145  0.19280595     0.14800
C1513       C  0.65563647  0.03903140  0.22950029    -0.24200
H1514       H  0.54572692  0.39141075  0.13720628     0.05000
H1515       H  0.58699062  0.38128865  0.14355452     0.08200
H1516       H  0.59063030  0.41671504  0.11324921     0.08200
H1517       H  0.64468764  0.02986189  0.25387266     0.08200
H1518       H  0.65009209  0.06383745  0.22187036     0.08200
H1519       H  0.68936193  0.05189045  0.22991534     0.05000
C1520       C  0.71518279  0.42407069  0.04951949    -0.20900
C1521       C  0.69927506  0.44582359  0.06559427    -0.07400
C1522       C  0.68499546  0.46788401  0.04759131     0.13400
C1523       C  0.68678624  0.46723737  0.01450363    -0.20900
C1524       C  0.70246100  0.44538570  0.49836504    -0.07400
C1525       C  0.71693155  0.42344699  0.01628411     0.13400
C1526       C  0.73289816  0.39808209  0.50077188    -0.24300
H1527       H  0.72604534  0.40705866  0.06308195     0.14700
H1528       H  0.67609247  0.48447914  0.00105577     0.14800
C1529       C  0.66901913  0.49350343  0.06269456    -0.24200
H1530       H  0.74031001  0.38098805  0.01839305     0.05000
H1531       H  0.76062346  0.91665790  0.48792522     0.08200
H1532       H  0.70958473  0.37549838  0.48413402     0.08200
H1533       H  0.69218474  0.51601388  0.07945222     0.08200
H1534       H  0.63993064  0.47352540  0.07517625     0.08200
H1535       H  0.66235812  0.51100575  0.04494614     0.05000
C1536       C  0.82153597  0.29750761  0.37187550    -0.20900
C1537       C  0.81207776  0.31278197  0.39889406    -0.07400
C1538       C  0.83752043  0.35468027  0.40710702     0.13400
C1539       C  0.87155362  0.37988415  0.38806410    -0.20900
C1540       C  0.88023710  0.36478111  0.36041048    -0.07400
C1541       C  0.85458101  0.32268416  0.35234934     0.13400
C1542       C  0.86124732  0.30340559  0.32324631    -0.24300
H1543       H  0.80233376  0.26541265  0.36563351     0.14700
H1544       H  0.89035463  0.41211050  0.39403386     0.14800
C1545       C  0.82770677  0.37370011  0.43467624    -0.24200
H1546       H  0.83946365  0.26987630  0.32192527     0.05000
H1547       H  0.89252805  0.30774010  0.32351107     0.08200
H1548       H  0.85640665  0.31687583  0.30158605     0.08200
H1549       H  0.83009907  0.35997023  0.45706715     0.08200
H1550       H  0.79621189  0.36873130  0.43196040     0.08200
H1551       H  0.84919906  0.40727081  0.43634277     0.05000
C1552       C  0.62574754  0.17330936  0.35175777    -0.20900
C1553       C  0.61486762  0.13212636  0.35591837    -0.07400
C1554       C  0.63076962  0.12178221  0.38244892     0.13400
C1555       C  0.65894724  0.15304187  0.40281938    -0.20900
C1556       C  0.67237779  0.19449979  0.39698079    -0.07400
C1557       C  0.65458770  0.20459881  0.37163439     0.13400
C1558       C  0.66574192  0.24835370  0.36549108    -0.24300
H1559       H  0.61310326  0.18135227  0.33185291     0.14700
H1560       H  0.67212689  0.14522883  0.42250133     0.14800
C1561       C  0.61821066  0.07795757  0.38942999    -0.24200
H1562       H  0.64717713  0.25042861  0.34593534     0.05000
H1563       H  0.69844134  0.26683921  0.35876887     0.08200
H1564       H  0.66015036  0.26177025  0.38702452     0.08200
H1565       H  0.62929504  0.06567039  0.37047741     0.08200
H1566       H  0.58431487  0.05925490  0.39104047     0.08200
H1567       H  0.63150125  0.07512507  0.41207064     0.05000
C1568       C  0.83556303  0.34737059  0.15645956    -0.20900
C1569       C  0.81172521  0.30703454  0.16752765    -0.07400
C1570       C  0.82503081  0.29535686  0.19484330     0.13400
C1571       C  0.85969956  0.32477288  0.21137209    -0.20900
C1572       C  0.88252589  0.36562465  0.20131142    -0.07400
C1573       C  0.87075321  0.37683575  0.17296009     0.13400
C1574       C  0.89391377  0.41993479  0.16056474    -0.24300
H1575       H  0.82584358  0.35627819  0.13529976     0.14700
H1576       H  0.86891523  0.31576170  0.23275707     0.14800
C1577       C  0.80371091  0.25178894  0.20656703    -0.24200
H1578       H  0.92592837  0.42812958  0.15518259     0.05000
H1579       H  0.89398104  0.44174227  0.17833367     0.08200
H1580       H  0.87986994  0.42333597  0.13853584     0.08200
H1581       H  0.80104219  0.23063462  0.18713361     0.08200
H1582       H  0.77288812  0.24312138  0.21569090     0.08200
H1583       H  0.82090855  0.24774549  0.22623032     0.05000
C1584       C  0.62867559  0.12048699  0.18829884    -0.20900
C1585       C  0.61543884  0.13404432  0.21431544    -0.07400
C1586       C  0.62857167  0.17634742  0.21728155     0.13400
C1587       C  0.65658499  0.20406132  0.19541734    -0.20900
C1588       C  0.67108646  0.19067618  0.17016573    -0.07400
C1589       C  0.65614769  0.14822696  0.16610216     0.13400
C1590       C  0.67065032  0.13225451  0.13934952    -0.24300
H1591       H  0.61785648  0.08801300  0.18556415     0.14700
H1592       H  0.66808832  0.23664772  0.19845967     0.14800
C1593       C  0.61479787  0.19283296  0.24423583    -0.24200
H1594       H  0.65692397  0.09842830  0.14030818     0.05000
H1595       H  0.70449639  0.14632018  0.14053619     0.08200
H1596       H  0.66178489  0.13983607  0.11644098     0.08200
H1597       H  0.62283303  0.18433220  0.26712225     0.08200
H1598       H  0.58116254  0.18016992  0.24278081     0.08200
H1599       H  0.62958549  0.22678027  0.24361940     0.05000
C1600       C  0.70280373  0.24149582  0.01570702    -0.20900
C1601       C  0.74007615  0.25448022  0.49989880    -0.07400
C1602       C  0.77585021  0.26585609  0.01833563     0.13400
C1603       C  0.77320802  0.26413064  0.05143661    -0.20900
C1604       C  0.73599019  0.25117758  0.06720681    -0.07400
C1605       C  0.70019037  0.23972800  0.04892770     0.13400
C1606       C  0.65933564  0.22683181  0.06401325    -0.24300
H1607       H  0.67540382  0.23296120  0.00187206     0.14700
H1608       H  0.80065440  0.27257427  0.06517869     0.14800
C1609       C  0.81679147  0.27834496  0.00354409    -0.24200
H1610       H  0.63552098  0.22171638  0.04618397     0.05000
H1611       H  0.66219989  0.25107900  0.08061888     0.08200
H1612       H  0.64841572  0.19760681  0.07681284     0.08200
H1613       H  0.82841968  0.30757354  0.49105780     0.08200
H1614       H  0.81354715  0.25386202  0.48660901     0.08200
H1615       H  0.84023975  0.28273107  0.02148227     0.05000
C1616       C  0.70546619  0.22182620  0.65122302     0.79700
N1617       N  0.70387146  0.22220827  0.61912247    -0.78600
C1618       C  0.73649355  0.25082120  0.60243685     0.82100
N1619       N  0.77114798  0.27828085  0.61828991    -0.78600
C1620       C  0.77325791  0.27774278  0.65031453     0.82200
N1621       N  0.74002139  0.24983083  0.66649612    -0.80300
C1622       C  0.70740051  0.22663934  0.91577499     0.79700
N1623       N  0.70726296  0.22639652  0.94793145    -0.78600
C1624       C  0.74042044  0.25508680  0.96465714     0.82100
N1625       N  0.77377374  0.28385755  0.94875691    -0.78600
C1626       C  0.77447895  0.28407961  0.91667260     0.82200
N1627       N  0.74123970  0.25516935  0.90048340    -0.80300
C1628       C  0.73017977  0.44527641  0.64931384     0.79700
N1629       N  0.70121494  0.44960982  0.66511552    -0.78600
C1630       C  0.67075295  0.45135782  0.64918983     0.82100
N1631       N  0.66994241  0.44936169  0.61715997    -0.78600
C1632       C  0.69905008  0.44568439  0.60087635     0.82200
N1633       N  0.72919118  0.44359448  0.61719552    -0.80300
C1634       C  0.73257468  0.44735815  0.91399529     0.79700
N1635       N  0.70316992  0.45191635  0.89918104    -0.78600
C1636       C  0.67352504  0.45417947  0.91580695     0.82100
N1637       N  0.67356566  0.45150841  0.94775746    -0.78600
C1638       C  0.70244918  0.44627508  0.96311723     0.82200
N1639       N  0.73223175  0.44465868  0.94602484    -0.80300
C1640       C  0.01630567  0.25290452  0.65018760     0.79700
N1641       N  0.01045402  0.21841348  0.66472555    -0.78600
C1642       C  0.00669356  0.18590404  0.64784536     0.82100
N1643       N  0.00827149  0.18798454  0.61573954    -0.78600
C1644       C  0.01413937  0.22248898  0.60069441     0.82200
N1645       N  0.01746746  0.25456192  0.61812501    -0.80300
C1646       C  0.01304524  0.25199162  0.91362803     0.79700
N1647       N  0.00705747  0.21727313  0.89884611    -0.78600
C1648       C  0.00311424  0.18486484  0.91554965     0.82100
N1649       N  0.00417931  0.18694188  0.94750716    -0.78600
C1650       C  0.00905691  0.22084325  0.96297897     0.82200
N1651       N  0.01357444  0.25354642  0.94589328    -0.80300
O1652       O  0.87867016  0.98866253  0.74575982    -0.88700
C1653       C  0.58931359  0.10181043  0.83108729     1.11300
O1654       O  0.93678011  0.46722096  0.78178957    -1.36500
O1655       O  0.55944823  0.10505855  0.74981042    -0.90200
O1656       O  0.85340037  0.42071202  0.74561193    -0.90900
O1657       O  0.94370075  0.42960244  0.71483641    -0.79700
O1658       O  0.96952336  0.04836982  0.75329108    -1.01800
C1659       C  0.56302246  0.48600372  0.72460240     1.21400
O1660       O  0.98998371  0.43572173  0.78180060    -1.36700
Mn1661     Mn  0.98238815  0.47415318  0.81668581     1.82100
O1662       O  0.52901938  0.48119397  0.71579268    -0.78800
O1663       O  0.60140422  0.07918501  0.74894223    -0.88200
C1664       C  0.56169300  0.48391203  0.84017747     1.12400
C1665       C  0.59038369  0.10410472  0.73906618     1.07200
O1666       O  0.94218955  0.42814970  0.84836500    -0.79700
O1667       O  0.52135859  0.02042673  0.78311158    -1.33400
O1668       O  0.90989529  0.38794837  0.81060319    -0.98900
C1669       C  0.00433036  0.36715248  0.73526389     1.05900
Mn1670     Mn  0.58274594  0.03336699  0.78352532     1.48600
O1671       O  0.96845220  0.35571286  0.74556267    -0.88100
Mn1672     Mn  0.88366831  0.40727048  0.78099161     1.49600
O1673       O  0.87760312  0.98765793  0.81666360    -0.92000
C1674       C  0.97332340  0.04499826  0.72500319     1.19100
C1675       C  0.85290662  0.45196784  0.82657647     1.11100
Mn1676     Mn  0.98307761  0.47495687  0.74777281     1.81000
O1677       O  0.56764601  0.48715854  0.81192030    -0.97200
Mn1678     Mn  0.92326799  0.01534890  0.78201883     1.49300
C1679       C  0.85395911  0.45233809  0.73480202     1.07700
Mn1680     Mn  0.54968799  0.44204771  0.78193519     1.49900
C1681       C  0.00405393  0.36677782  0.82759374     1.10600
O1682       O  0.91070532  0.38859368  0.75153560    -1.03000
O1683       O  0.60053377  0.07738367  0.82018690    -0.92600
C1684       C  0.91459369  0.39556813  0.72331630     1.20600
O1685       O  0.56982272  0.48852531  0.75292096    -1.03300
O1686       O  0.55853136  0.10328852  0.82023317    -0.90700
O1687       O  0.53610389  0.39750255  0.81673727    -0.90300
O1688       O  0.85253429  0.42013319  0.81607582    -0.90400
Mn1689     Mn  0.51481327  0.07377539  0.78404889     1.47900
O1690       O  0.52803321  0.47946846  0.84947273    -0.78800
C1691       C  0.91314706  0.39425686  0.83894879     1.14900
O1692       O  0.97805976  0.01573010  0.71607378    -0.77600
O1693       O  0.97590749  0.01342706  0.84943081    -0.77200
Mn1694     Mn  0.94179178  0.37414082  0.78123339     1.51100
O1695       O  0.53644823  0.39822729  0.74632618    -0.89500
O1696       O  0.96810876  0.04658205  0.81259498    -0.97100
O1697       O  0.96816458  0.35564747  0.81719944    -0.92100
C1698       C  0.97032476  0.04218974  0.84085326     1.12700
C1699       C  0.96312569  0.13213680  0.87524670    -0.20900
C1700       C  0.99322041  0.14616618  0.89889408    -0.07400
C1701       C  0.51296810  0.12344871  0.90552243     0.13400
C1702       C  0.50264022  0.08775247  0.88772510    -0.20900
C1703       C  0.97329215  0.07440020  0.86317195    -0.07400
C1704       C  0.95260805  0.09663508  0.85751819     0.13400
C1705       C  0.91854279  0.08308678  0.83354108    -0.24300
H1706       H  0.94747822  0.14915837  0.87069329     0.14700
H1707       H  0.51920868  0.07155690  0.89181688     0.14800
C1708       C  0.54662444  0.13801563  0.92995118    -0.24200
H1709       H  0.90642810  0.10454375  0.83243151     0.05000
H1710       H  0.89272246  0.05292554  0.84025630     0.08200
H1711       H  0.92927660  0.08157574  0.80962765     0.08200
H1712       H  0.53427086  0.13801510  0.95370304     0.08200
H1713       H  0.57140009  0.16948799  0.92421281     0.08200
H1714       H  0.56031768  0.11789339  0.93082719     0.05000
C1715       C  0.99012320  0.30233824  0.90123606    -0.20900
C1716       C  0.01569269  0.28617049  0.89417617    -0.07400
C1717       C  0.54076418  0.30049299  0.86706940     0.13400
C1718       C  0.53749179  0.32813458  0.84667957    -0.20900
C1719       C  0.00932158  0.34153667  0.85223488    -0.07400
C1720       C  0.98653991  0.32967572  0.88057897     0.13400
C1721       C  0.95871429  0.34602902  0.88926424    -0.24300
H1722       H  0.97147895  0.29213852  0.92230052     0.14700
H1723       H  0.55595622  0.33811104  0.82550692     0.14800
C1724       C  0.57161998  0.28729452  0.85964837    -0.24200
H1725       H  0.94486660  0.33545924  0.91291036     0.05000
H1726       H  0.93347313  0.33510354  0.87181912     0.08200
H1727       H  0.97624418  0.38006819  0.88959203     0.08200
H1728       H  0.55588433  0.25407712  0.85393689     0.08200
H1729       H  0.59243202  0.29390146  0.88020622     0.08200
H1730       H  0.59071794  0.30383922  0.83898062     0.05000
C1731       C  0.46803453  0.13552008  0.68947728    -0.20900
C1732       C  0.99653659  0.14741303  0.66484901    -0.07400
C1733       C  0.01595909  0.12414717  0.65905677     0.13400
C1734       C  0.00590550  0.08941971  0.67777411    -0.20900
C1735       C  0.97802619  0.07813060  0.70299578    -0.07400
C1736       C  0.45914259  0.10205885  0.70888847     0.13400
C1737       C  0.43011044  0.09356962  0.73588607    -0.24300
H1738       H  0.45332909  0.15344097  0.69411917     0.14700
H1739       H  0.02161375  0.07234339  0.67376047     0.14800
C1740       C  0.04905942  0.13722389  0.63460866    -0.24200
H1741       H  0.41694418  0.11416801  0.73578287     0.05000
H1742       H  0.44674989  0.09883002  0.75854343     0.08200
H1743       H  0.40425874  0.06177372  0.73433633     0.08200
H1744       H  0.07411212  0.16891320  0.63989391     0.08200
H1745       H  0.03624777  0.13615626  0.61077906     0.08200
H1746       H  0.06253241  0.11689068  0.63428107     0.05000
C1747       C  0.98893477  0.29916897  0.66303259    -0.20900
C1748       C  0.01754319  0.28660396  0.66936942    -0.07400
C1749       C  0.54451203  0.30393827  0.69555190     0.13400
C1750       C  0.54064752  0.33169157  0.71559653    -0.20900
C1751       C  0.00975887  0.34180366  0.71071188    -0.07400
C1752       C  0.98440612  0.32619400  0.68354978     0.13400
C1753       C  0.95249540  0.33773965  0.67612504    -0.24300
H1754       H  0.96867188  0.28621603  0.64277932     0.14700
H1755       H  0.56063611  0.34413255  0.73604562     0.14800
C1756       C  0.57748551  0.29344800  0.70230452    -0.24200
H1757       H  0.93704615  0.32475220  0.65311450     0.05000
H1758       H  0.96682851  0.37160951  0.67512755     0.08200
H1759       H  0.92879762  0.32544355  0.69464241     0.08200
H1760       H  0.59743228  0.30034073  0.68132097     0.08200
H1761       H  0.56358589  0.26050886  0.70816300     0.08200
H1762       H  0.59710898  0.31143195  0.72261872     0.05000
C1763       C  0.53715900  0.25727285  0.51450635    -0.20900
C1764       C  0.00906649  0.22149649  0.99824637    -0.07400
C1765       C  0.98202238  0.18626647  0.51612669     0.13400
C1766       C  0.98483181  0.18787651  0.54926784    -0.20900
C1767       C  0.01331275  0.22352368  0.56547509    -0.07400
C1768       C  0.53985920  0.25881154  0.54777876     0.13400
C1769       C  0.57220245  0.29766333  0.56357824    -0.24300
H1770       H  0.55779711  0.28398148  0.00091105     0.14700
H1771       H  0.96417805  0.16104091  0.56272063     0.14800
C1772       C  0.94923920  0.14728177  0.50068508    -0.24200
H1773       H  0.59196836  0.32101827  0.54606878     0.05000
H1774       H  0.59219369  0.29088598  0.57867029     0.08200
H1775       H  0.55761887  0.31133022  0.57818191     0.08200
H1776       H  0.96297161  0.13257071  0.98693936     0.08200
H1777       H  0.92994680  0.15482210  0.98484223     0.08200
H1778       H  0.92874164  0.12474013  0.51837721     0.05000
C1779       C  0.83465990  0.47855978  0.87433949    -0.20900
C1780       C  0.82281011  0.44749421  0.85134199    -0.07400
C1781       C  0.78161826  0.41472217  0.85102701     0.13400
C1782       C  0.75347291  0.41491134  0.87270256    -0.20900
C1783       C  0.76512992  0.44668377  0.89488562    -0.07400
C1784       C  0.80641252  0.47887555  0.89583132     0.13400
C1785       C  0.82144044  0.51519028  0.91791709    -0.24300
H1786       H  0.86616615  0.50344507  0.87515999     0.14700
H1787       H  0.72171369  0.39051093  0.87183976     0.14800
C1788       C  0.76633090  0.38050135  0.82694115    -0.24200
H1789       H  0.84611094  0.51682692  0.93331987     0.05000
H1790       H  0.79841452  0.01017889  0.93623769     0.08200
H1791       H  0.83407740  0.54377538  0.90392555     0.08200
H1792       H  0.77872324  0.86503376  0.82431405     0.08200
H1793       H  0.77180946  0.39347583  0.80283675     0.08200
H1794       H  0.73293785  0.35875178  0.82925469     0.05000
C1795       C  0.57814455  0.45959192  0.89025777    -0.20900
C1796       C  0.59150150  0.48015529  0.86132189    -0.07400
C1797       C  0.63236789  0.49338695  0.85166263     0.13400
C1798       C  0.65790780  0.48538090  0.87067572    -0.20900
C1799       C  0.64427058  0.46341047  0.89884207    -0.07400
C1800       C  0.60375710  0.45065401  0.90898567     0.13400
C1801       C  0.58652033  0.42611425  0.93861648    -0.24300
H1802       H  0.54693978  0.44895943  0.89766656     0.14700
H1803       H  0.68898925  0.49589932  0.86297011     0.14800
C1804       C  0.64984232  0.51538160  0.82100716    -0.24200
H1805       H  0.55372724  0.41671030  0.94180344     0.05000
H1806       H  0.60340274  0.94424433  0.95960881     0.08200
H1807       H  0.58875978  0.39784360  0.93742691     0.08200
H1808       H  0.64647269  0.04273507  0.81955678     0.08200
H1809       H  0.63414657  0.49413662  0.80091950     0.08200
H1810       H  0.68302345  0.52595751  0.81875598     0.05000
C1811       C  0.75578813  0.41055010  0.68465077    -0.20900
C1812       C  0.76395465  0.44527442  0.66726894    -0.07400
C1813       C  0.80309098  0.48058669  0.66946403     0.13400
C1814       C  0.83238480  0.48122647  0.69049068    -0.20900
C1815       C  0.82373445  0.44731916  0.70951311    -0.07400
C1816       C  0.78524825  0.41068488  0.70528448     0.13400
C1817       C  0.77403229  0.37179399  0.72285156    -0.24300
H1818       H  0.72577149  0.38335447  0.68248395     0.14700
H1819       H  0.86205470  0.50876490  0.69240140     0.14800
C1820       C  0.81344456  0.51815106  0.65042630    -0.24200
H1821       H  0.74265329  0.34674600  0.71674733     0.05000
H1822       H  0.77500838  0.37732120  0.74865404     0.08200
H1823       H  0.79555982  0.36086095  0.71661651     0.08200
H1824       H  0.78798701  0.02961246  0.66061471     0.08200
H1825       H  0.81070432  0.51048873  0.62485037     0.08200
H1826       H  0.84521387  0.54336029  0.65517710     0.05000
C1827       C  0.57463449  0.45113756  0.67880040    -0.20900
C1828       C  0.59143690  0.48179029  0.70238363    -0.07400
C1829       C  0.63444597  0.00317074  0.70689482     0.13400
C1830       C  0.65907471  0.49229626  0.68930835    -0.20900
C1831       C  0.64222458  0.46091214  0.66653699    -0.07400
C1832       C  0.59940765  0.44032683  0.66090358     0.13400
C1833       C  0.57939494  0.40549135  0.63739996    -0.24300
H1834       H  0.54168654  0.43412906  0.67541530     0.14700
H1835       H  0.69177590  0.00860118  0.69273007     0.14800
C1836       C  0.65565515  0.03893514  0.72946431    -0.24200
H1837       H  0.54552114  0.39148301  0.63720579     0.05000
H1838       H  0.58670061  0.38122838  0.64353621     0.08200
H1839       H  0.59043102  0.41671299  0.61325025     0.08200
H1840       H  0.64475972  0.02977087  0.75385011     0.08200
H1841       H  0.65010326  0.06374941  0.72186491     0.08200
H1842       H  0.68937844  0.05177665  0.72982752     0.05000
C1843       C  0.71496476  0.42386803  0.54949814    -0.20900
C1844       C  0.69905234  0.44561287  0.56558044    -0.07400
C1845       C  0.68482706  0.46772476  0.54758230     0.13400
C1846       C  0.68669624  0.46715355  0.51449391    -0.20900
C1847       C  0.70253641  0.44545437  0.99838065    -0.07400
C1848       C  0.71678193  0.42331180  0.51626349     0.13400
C1849       C  0.73306021  0.39822249  0.00080076    -0.24300
H1850       H  0.72578021  0.40681146  0.56305341     0.14700
H1851       H  0.67604659  0.48443538  0.50105052     0.14800
C1852       C  0.66882057  0.49331382  0.56269283    -0.24200
H1853       H  0.74008739  0.38079242  0.51835487     0.05000
H1854       H  0.76095933  0.91705015  0.98796690     0.08200
H1855       H  0.70972945  0.37559106  0.98419797     0.08200
H1856       H  0.69195425  0.51579490  0.57948359     0.08200
H1857       H  0.63971010  0.47330860  0.57513896     0.08200
H1858       H  0.66218944  0.51084713  0.54495306     0.05000
C1859       C  0.82154086  0.29759987  0.87193003    -0.20900
C1860       C  0.81209881  0.31287476  0.89895598    -0.07400
C1861       C  0.83755030  0.35477386  0.90716596     0.13400
C1862       C  0.87156697  0.37997757  0.88810683    -0.20900
C1863       C  0.88022668  0.36487321  0.86044226    -0.07400
C1864       C  0.85456965  0.32277345  0.85239104     0.13400
C1865       C  0.86121869  0.30348649  0.82328605    -0.24300
H1866       H  0.80233800  0.26550219  0.86569210     0.14700
H1867       H  0.89037212  0.41220390  0.89407305     0.14800
C1868       C  0.82776432  0.37379690  0.93474819    -0.24200
H1869       H  0.83943498  0.26995633  0.82197232     0.05000
H1870       H  0.89249876  0.30782085  0.82354355     0.08200
H1871       H  0.85636415  0.31694830  0.80162673     0.08200
H1872       H  0.83017864  0.36007112  0.95713239     0.08200
H1873       H  0.79626736  0.36882891  0.93205467     0.08200
H1874       H  0.84925950  0.40736727  0.93641010     0.05000
C1875       C  0.62570882  0.17325543  0.85194946    -0.20900
C1876       C  0.61498852  0.13210068  0.85602502    -0.07400
C1877       C  0.63103816  0.12178515  0.88247976     0.13400
C1878       C  0.65920156  0.15305304  0.90285082    -0.20900
C1879       C  0.67246413  0.19449109  0.89708988    -0.07400
C1880       C  0.65452692  0.20455345  0.87183079     0.13400
C1881       C  0.66550268  0.24827903  0.86579133    -0.24300
H1882       H  0.61295107  0.18127732  0.83210837     0.14700
H1883       H  0.67249577  0.14527079  0.92247166     0.14800
C1884       C  0.61864391  0.07798414  0.88938817    -0.24200
H1885       H  0.64686009  0.25032677  0.84628475     0.05000
H1886       H  0.69818490  0.26688912  0.85905390     0.08200
H1887       H  0.65986977  0.26157374  0.88737787     0.08200
H1888       H  0.62974913  0.06579684  0.87037740     0.08200
H1889       H  0.58475997  0.05918355  0.89104672     0.08200
H1890       H  0.63202937  0.07516753  0.91198548     0.05000
C1891       C  0.83555531  0.34717833  0.65636451    -0.20900
C1892       C  0.81161722  0.30689489  0.66751438    -0.07400
C1893       C  0.82477957  0.29531473  0.69496456     0.13400
C1894       C  0.85941191  0.32476956  0.71150851    -0.20900
C1895       C  0.88235589  0.36556733  0.70134423    -0.07400
C1896       C  0.87070960  0.37668026  0.67288468     0.13400
C1897       C  0.89397122  0.41971859  0.66038424    -0.24300
H1898       H  0.82594617  0.35602214  0.63511242     0.14700
H1899       H  0.86851818  0.31582210  0.73298219     0.14800
C1900       C  0.80335085  0.25180856  0.70682714    -0.24200
H1901       H  0.92599579  0.42784623  0.65511828     0.05000
H1902       H  0.89399209  0.44161623  0.67804461     0.08200
H1903       H  0.88003466  0.42304592  0.63826715     0.08200
H1904       H  0.80070159  0.23053438  0.68749756     0.08200
H1905       H  0.77251578  0.24324804  0.71586139     0.08200
H1906       H  0.82045808  0.24782605  0.72659135     0.05000
C1907       C  0.62854771  0.12038174  0.68829125    -0.20900
C1908       C  0.61542224  0.13399882  0.71434206    -0.07400
C1909       C  0.62859706  0.17631276  0.71728278     0.13400
C1910       C  0.65655983  0.20397954  0.69536850    -0.20900
C1911       C  0.67097370  0.19054091  0.67009061    -0.07400
C1912       C  0.65596876  0.14807681  0.66604344     0.13400
C1913       C  0.67035891  0.13204149  0.63925914    -0.24300
H1914       H  0.61769730  0.08789996  0.68557757     0.14700
H1915       H  0.66810798  0.23657487  0.69839920     0.14800
C1916       C  0.61492996  0.19286129  0.74426351    -0.24200
H1917       H  0.65658473  0.09821004  0.64022807     0.05000
H1918       H  0.70420203  0.14605785  0.64039215     0.08200
H1919       H  0.66145758  0.13963082  0.61636938     0.08200
H1920       H  0.62302621  0.18438634  0.76713575     0.08200
H1921       H  0.58129425  0.18022018  0.74287246     0.08200
H1922       H  0.62973849  0.22680912  0.74361858     0.05000
C1923       C  0.70278068  0.24156443  0.51563984    -0.20900
C1924       C  0.74013520  0.25456510  0.99997758    -0.07400
C1925       C  0.77576787  0.26562970  0.51824733     0.13400
C1926       C  0.77313260  0.26388051  0.55135106    -0.20900
C1927       C  0.73594711  0.25106365  0.56713214    -0.07400
C1928       C  0.70018099  0.23980119  0.54886305     0.13400
C1929       C  0.65938748  0.22713300  0.56396740    -0.24300
H1930       H  0.67540539  0.23315946  0.50181303     0.14700
H1931       H  0.80055566  0.27220320  0.56508792     0.14800
C1932       C  0.81667250  0.27800041  0.50343779    -0.24200
H1933       H  0.63560864  0.22216341  0.54614969     0.05000
H1934       H  0.66241649  0.25144066  0.58058064     0.08200
H1935       H  0.64831788  0.19788416  0.57676445     0.08200
H1936       H  0.82845822  0.30789737  0.99115226     0.08200
H1937       H  0.81375764  0.25422820  0.98673136     0.08200
H1938       H  0.84010096  0.28229618  0.52136458     0.05000
C1939       C  0.70589781  0.72198822  0.15127246     0.79700
N1940       N  0.70418843  0.72235591  0.11917861    -0.78600
C1941       C  0.73678477  0.75088035  0.10242694     0.82100
N1942       N  0.77153589  0.77827298  0.11820942    -0.78600
C1943       C  0.77376815  0.77775190  0.15022748     0.82200
N1944       N  0.74054909  0.74992632  0.16647888    -0.80300
C1945       C  0.70713558  0.72654137  0.41558506     0.79700
N1946       N  0.70705714  0.72624241  0.44774599    -0.78600
C1947       C  0.74028895  0.75484109  0.46446236     0.82100
N1948       N  0.77364956  0.78357467  0.44854860    -0.78600
C1949       C  0.77429991  0.78385550  0.41646390     0.82200
N1950       N  0.74099179  0.75503418  0.40028418    -0.80300
C1951       C  0.73012828  0.94534545  0.14941682     0.79700
N1952       N  0.70117094  0.94977116  0.16512299    -0.78600
C1953       C  0.67060068  0.95123253  0.14913758     0.82100
N1954       N  0.66971509  0.94893045  0.11711760    -0.78600
C1955       C  0.69885660  0.94521201  0.10091063     0.82200
N1956       N  0.72908585  0.94335613  0.11730241    -0.80300
C1957       C  0.73230189  0.94665999  0.41394119     0.79700
N1958       N  0.70301021  0.95144974  0.39916415    -0.78600
C1959       C  0.67336338  0.95369381  0.41579425     0.82100
N1960       N  0.67327529  0.95077508  0.44772643    -0.78600
C1961       C  0.70200509  0.94528484  0.46307107     0.82200
N1962       N  0.73177817  0.94363617  0.44596923    -0.80300
C1963       C  0.01690582  0.75293624  0.15032911     0.79700
N1964       N  0.01111245  0.71840937  0.16477971    -0.78600
C1965       C  0.00745437  0.68601266  0.14780201     0.82100
N1966       N  0.00897553  0.68817250  0.11570589    -0.78600
C1967       C  0.01473130  0.72268343  0.10075033     0.82200
N1968       N  0.01802537  0.75468373  0.11826401    -0.80300
C1969       C  0.01293871  0.75196637  0.41379615     0.79700
N1970       N  0.00698349  0.71727500  0.39899576    -0.78600
C1971       C  0.00294486  0.68480637  0.41567815     0.82100
N1972       N  0.00395169  0.68684411  0.44763644    -0.78600
C1973       C  0.00884725  0.72074562  0.46312127     0.82200
N1974       N  0.01340594  0.75347422  0.44605404    -0.80300
O1975       O  0.87872711  0.48828338  0.24545218    -0.88700
C1976       C  0.58901185  0.60183873  0.33083181     1.11300
O1977       O  0.93691711  0.96719821  0.28188230    -1.36500
O1978       O  0.55933729  0.60502125  0.24943509    -0.90200
O1979       O  0.85374546  0.92101517  0.24542968    -0.90900
O1980       O  0.94400772  0.92979657  0.21481043    -0.79700
O1981       O  0.96950039  0.54833326  0.25297372    -1.01800
C1982       C  0.56298717  0.98593490  0.22461441     1.21400
O1983       O  0.99012794  0.93568104  0.28182005    -1.36700
Mn1984     Mn  0.98248134  0.97398925  0.31677735     1.82100
O1985       O  0.52902225  0.98123577  0.21582689    -0.78800
O1986       O  0.60136244  0.57922033  0.24883114    -0.88200
C1987       C  0.56172374  0.98376083  0.34020278     1.12400
C1988       C  0.59038172  0.60412964  0.23886408     1.07200
O1989       O  0.94218509  0.92787807  0.34833594    -0.79700
O1990       O  0.52122046  0.52040524  0.28286347    -1.33400
O1991       O  0.90990859  0.88784964  0.31047233    -0.98900
C1992       C  0.00458965  0.86711735  0.23532181     1.05900
Mn1993     Mn  0.58261428  0.53338317  0.28339339     1.48600
O1994       O  0.96867555  0.85569920  0.24553255    -0.88100
Mn1995     Mn  0.88380111  0.90728605  0.28083338     1.49600
O1996       O  0.87756835  0.48764217  0.31643266    -0.92000
C1997       C  0.97333606  0.54480346  0.22470326     1.19100
C1998       C  0.85290807  0.95173357  0.32656487     1.11100
Mn1999     Mn  0.98326139  0.97503322  0.24787163     1.81000
O2000       O  0.56770081  0.98704168  0.31194556    -0.97200
Mn2001     Mn  0.92325409  0.51523833  0.28174705     1.49300
C2002       C  0.85416092  0.95271811  0.23493641     1.07700
Mn2003     Mn  0.54965100  0.94192735  0.28194281     1.49900
C2004       C  0.00403070  0.86666622  0.32763331     1.10600
O2005       O  0.91098246  0.88869883  0.25142858    -1.03000
O2006       O  0.60025415  0.57738403  0.32003445    -0.92600
C2007       C  0.91495910  0.89569636  0.22321948     1.20600
O2008       O  0.56980923  0.98841527  0.25293067    -1.03300
O2009       O  0.55829132  0.60334073  0.31985002    -0.90700
O2010       O  0.53597495  0.89735446  0.31674232    -0.90300
O2011       O  0.85242310  0.91993676  0.31583995    -0.90400
Mn2012     Mn  0.51460713  0.57374274  0.28361867     1.47900
O2013       O  0.52803328  0.97924964  0.34949112    -0.78800
C2014       C  0.91308656  0.89407028  0.33883057     1.14900
O2015       O  0.97812468  0.51551780  0.21591296    -0.77600
O2016       O  0.97596700  0.51362670  0.34925861    -0.77200
Mn2017     Mn  0.94191865  0.87410900  0.28115762     1.51100
O2018       O  0.53639380  0.89810757  0.24634113    -0.89500
O2019       O  0.96810191  0.54658499  0.31230960    -0.97100
O2020       O  0.96816726  0.85553717  0.31716807    -0.92100
C2021       C  0.97037437  0.54235649  0.34058811     1.12700
C2022       C  0.96372097  0.63279395  0.37474732    -0.20900
C2023       C  0.99301369  0.64611459  0.39896211    -0.07400
C2024       C  0.51166584  0.62253273  0.40614804     0.13400
C2025       C  0.50138732  0.58702930  0.38807819    -0.20900
C2026       C  0.97334919  0.57467464  0.36283355    -0.07400
C2027       C  0.95345082  0.59757546  0.35674043     0.13400
C2028       C  0.92079735  0.58533231  0.33172099    -0.24300
H2029       H  0.94864964  0.65028445  0.36983991     0.14700
H2030       H  0.51702968  0.57004088  0.39270957     0.14800
C2031       C  0.54406724  0.63581315  0.43150459    -0.24200
H2032       H  0.90883919  0.60691975  0.33061868     0.05000
H2033       H  0.89455116  0.55485331  0.33710662     0.08200
H2034       H  0.93310841  0.58512935  0.30818994     0.08200
H2035       H  0.53072618  0.63547520  0.45489976     0.08200
H2036       H  0.56957226  0.66720313  0.42652182     0.08200
H2037       H  0.55705497  0.61509358  0.43270286     0.05000
C2038       C  0.98967098  0.80197261  0.40121070    -0.20900
C2039       C  0.01559035  0.78615432  0.39436977    -0.07400
C2040       C  0.54096483  0.80075915  0.36729880     0.13400
C2041       C  0.53757860  0.82828852  0.34685588    -0.20900
C2042       C  0.00922902  0.84143725  0.35233377    -0.07400
C2043       C  0.98608541  0.82926135  0.38050410     0.13400
C2044       C  0.95785628  0.84521239  0.38895743    -0.24300
H2045       H  0.97075966  0.79152216  0.42212777     0.14700
H2046       H  0.55615262  0.83838270  0.32574324     0.14800
C2047       C  0.57203806  0.78780745  0.36000396    -0.24200
H2048       H  0.94377637  0.83446202  0.41251297     0.05000
H2049       H  0.93278915  0.83413825  0.37134560     0.08200
H2050       H  0.97512694  0.87925638  0.38936845     0.08200
H2051       H  0.55649124  0.75458392  0.35434091     0.08200
H2052       H  0.59281688  0.79457392  0.38060781     0.08200
H2053       H  0.59114449  0.80438653  0.33934895     0.05000
C2054       C  0.46709935  0.63425969  0.18789837    -0.20900
C2055       C  0.99717903  0.64743206  0.16464385    -0.07400
C2056       C  0.01766163  0.62503966  0.15963414     0.13400
C2057       C  0.00736367  0.59013125  0.17820000    -0.20900
C2058       C  0.97817145  0.57785911  0.20255211    -0.07400
C2059       C  0.45766197  0.60044094  0.20704573     0.13400
C2060       C  0.42615589  0.59009109  0.23239146    -0.24300
H2061       H  0.45124084  0.65126624  0.19162553     0.14700
H2062       H  0.02388946  0.57374326  0.17484344     0.14800
C2063       C  0.05207933  0.63929563  0.13624083    -0.24200
H2064       H  0.41258873  0.61033055  0.23179416     0.05000
H2065       H  0.44068622  0.59419571  0.25579836     0.08200
H2066       H  0.40082944  0.55832289  0.22927656     0.08200
H2067       H  0.07645116  0.67102402  0.14229560     0.08200
H2068       H  0.04041513  0.63865414  0.11204324     0.08200
H2069       H  0.06608198  0.61943270  0.13632633     0.05000
C2070       C  0.98968883  0.79938158  0.16303456    -0.20900
C2071       C  0.01803985  0.78654355  0.16959001    -0.07400
C2072       C  0.54458524  0.80377092  0.19580384     0.13400
C2073       C  0.54061999  0.83149950  0.21580418    -0.20900
C2074       C  0.01010716  0.84173734  0.21085240    -0.07400
C2075       C  0.98507731  0.82639115  0.18351257     0.13400
C2076       C  0.95341664  0.83820075  0.17586333    -0.24300
H2077       H  0.96967784  0.78665951  0.14262356     0.14700
H2078       H  0.56052572  0.84393699  0.23629788     0.14800
C2079       C  0.57755230  0.79330803  0.20267539    -0.24200
H2080       H  0.93819677  0.82538157  0.15275415     0.05000
H2081       H  0.96791230  0.87208917  0.17495313     0.08200
H2082       H  0.92951149  0.82592304  0.19422453     0.08200
H2083       H  0.59758475  0.80020967  0.18174429     0.08200
H2084       H  0.56364752  0.76037331  0.20854960     0.08200
H2085       H  0.59709219  0.81130045  0.22302123     0.05000
C2086       C  0.53712563  0.75737498  0.01451638    -0.20900
C2087       C  0.00896035  0.72144538  0.49838151    -0.07400
C2088       C  0.98209481  0.68653586  0.01625245     0.13400
C2089       C  0.98504657  0.68814820  0.04938386    -0.20900
C2090       C  0.01371575  0.72374307  0.06554559    -0.07400
C2091       C  0.54002016  0.75897998  0.04777913     0.13400
C2092       C  0.57239377  0.79787629  0.06350433    -0.24300
H2093       H  0.55805323  0.78422361  0.50097240     0.14700
H2094       H  0.96436515  0.66135316  0.06286840     0.14800
C2095       C  0.94911126  0.64763151  0.00085626    -0.24200
H2096       H  0.59200723  0.82124472  0.04594838     0.05000
H2097       H  0.59252517  0.79117420  0.07849028     0.08200
H2098       H  0.55783581  0.81148011  0.07821008     0.08200
H2099       H  0.96337898  0.63245719  0.48721153     0.08200
H2100       H  0.93001850  0.65433150  0.48519199     0.08200
H2101       H  0.92860319  0.62515655  0.01858067     0.05000
C2102       C  0.83485744  0.97662883  0.37537791    -0.20900
C2103       C  0.82260481  0.94701816  0.35116920    -0.07400
C2104       C  0.78090417  0.91559821  0.34948228     0.13400
C2105       C  0.75271778  0.91555303  0.37123081    -0.20900
C2106       C  0.76479676  0.94590761  0.39473611    -0.07400
C2107       C  0.80655858  0.97686169  0.39687806     0.13400
C2108       C  0.82216800  0.01198165  0.42019004    -0.24300
H2109       H  0.86673983  0.00051023  0.37711548     0.14700
H2110       H  0.72063422  0.89216704  0.36938403     0.14800
C2111       C  0.76526480  0.88327501  0.32382537    -0.24200
H2112       H  0.84568151  0.01150719  0.43574640     0.05000
H2113       H  0.79722939  0.51376593  0.43338814     0.08200
H2114       H  0.83645054  0.04142189  0.40720568     0.08200
H2115       H  0.78206325  0.36277081  0.32980981     0.08200
H2116       H  0.77221491  0.89817338  0.30037192     0.08200
H2117       H  0.73157079  0.86252963  0.32518380     0.05000
C2118       C  0.57810101  0.95933102  0.39025543    -0.20900
C2119       C  0.59151427  0.97998193  0.36135825    -0.07400
C2120       C  0.63240921  0.99326588  0.35174715     0.13400
C2121       C  0.65790432  0.98517508  0.37074997    -0.20900
C2122       C  0.64419667  0.96308815  0.39886395    -0.07400
C2123       C  0.60367184  0.95033248  0.40897890     0.13400
C2124       C  0.58637584  0.92573264  0.43857624    -0.24300
H2125       H  0.54687693  0.94866572  0.39763166     0.14700
H2126       H  0.68899928  0.99570549  0.36307244     0.14800
C2127       C  0.64995466  0.01539916  0.32115160    -0.24200
H2128       H  0.55358834  0.91635843  0.44174933     0.05000
H2129       H  0.60347497  0.44456343  0.45951703     0.08200
H2130       H  0.58857604  0.89744184  0.43735243     0.08200
H2131       H  0.64632638  0.54280649  0.31937323     0.08200
H2132       H  0.63431625  0.99424462  0.30100657     0.08200
H2133       H  0.68314507  0.02599811  0.31893914     0.05000
C2134       C  0.75677070  0.91051768  0.18362923    -0.20900
C2135       C  0.76405457  0.94579355  0.16745921    -0.07400
C2136       C  0.80224730  0.98198430  0.17109502     0.13400
C2137       C  0.83162231  0.98265587  0.19204080    -0.20900
C2138       C  0.82389818  0.94797994  0.20974670    -0.07400
C2139       C  0.78619121  0.91080093  0.20440247     0.13400
C2140       C  0.77561818  0.87144431  0.22101500    -0.24300
H2141       H  0.72737294  0.88276692  0.18050876     0.14700
H2142       H  0.86055187  0.01085876  0.19501412     0.14800
C2143       C  0.81145360  0.02034738  0.15363715    -0.24200
H2144       H  0.74479261  0.84600685  0.21409626     0.05000
H2145       H  0.77556482  0.87574183  0.24693582     0.08200
H2146       H  0.79808553  0.86174186  0.21475958     0.08200
H2147       H  0.79201582  0.52976076  0.15702831     0.08200
H2148       H  0.80965278  0.01446992  0.12779548     0.08200
H2149       H  0.84260231  0.04615204  0.15930848     0.05000
C2150       C  0.57450601  0.95104782  0.17877776    -0.20900
C2151       C  0.59135165  0.98171403  0.20235302    -0.07400
C2152       C  0.63459314  0.50334040  0.20700979     0.13400
C2153       C  0.65896845  0.99228776  0.18915115    -0.20900
C2154       C  0.64208344  0.96086752  0.16640985    -0.07400
C2155       C  0.59925279  0.94023780  0.16084108     0.13400
C2156       C  0.57920524  0.90535765  0.13737829    -0.24300
H2157       H  0.54155135  0.93401917  0.17544271     0.14700
H2158       H  0.69207046  0.50894661  0.19301808     0.14800
C2159       C  0.65564350  0.53912784  0.22957568    -0.24200
H2160       H  0.54532981  0.89133431  0.13722523     0.05000
H2161       H  0.58654041  0.88111711  0.14352254     0.08200
H2162       H  0.59019155  0.91654295  0.11321135     0.08200
H2163       H  0.64459931  0.53000207  0.25393113     0.08200
H2164       H  0.65013278  0.56392221  0.22185244     0.08200
H2165       H  0.68936748  0.55198725  0.23008247     0.05000
C2166       C  0.71456936  0.92305611  0.04956773    -0.20900
C2167       C  0.69887450  0.94502902  0.06561124    -0.07400
C2168       C  0.68489239  0.96731436  0.04757211     0.13400
C2169       C  0.68672191  0.96664728  0.01448936    -0.20900
C2170       C  0.70197083  0.94433627  0.49834709    -0.07400
C2171       C  0.71635253  0.92241226  0.01632279     0.13400
C2172       C  0.73186108  0.89658316  0.50077550    -0.24300
H2173       H  0.72523181  0.90589693  0.06316054     0.14700
H2174       H  0.67625399  0.98406788  0.00102446     0.14800
C2175       C  0.66921241  0.99321024  0.06263755    -0.24200
H2176       H  0.73932541  0.87962767  0.01845480     0.05000
H2177       H  0.76162518  0.41831395  0.48793713     0.08200
H2178       H  0.70845173  0.87409872  0.48414192     0.08200
H2179       H  0.69244857  0.01559935  0.07941717     0.08200
H2180       H  0.64004524  0.97341561  0.07508752     0.08200
H2181       H  0.66279222  0.01086821  0.04487064     0.05000
C2182       C  0.82122717  0.79743825  0.37159652    -0.20900
C2183       C  0.81191807  0.81264330  0.39873395    -0.07400
C2184       C  0.83750622  0.85448643  0.40705262     0.13400
C2185       C  0.87153623  0.87969249  0.38800926    -0.20900
C2186       C  0.88007814  0.86466242  0.36025153    -0.07400
C2187       C  0.85426747  0.82263176  0.35206872     0.13400
C2188       C  0.86076070  0.80345253  0.32282646    -0.24300
H2189       H  0.80191341  0.76539114  0.36526214     0.14700
H2190       H  0.89045724  0.91187224  0.39407328     0.14800
C2191       C  0.82786212  0.87346948  0.43474211    -0.24200
H2192       H  0.83891726  0.76994088  0.32143526     0.05000
H2193       H  0.89202692  0.80773372  0.32293964     0.08200
H2194       H  0.85586499  0.81706370  0.30127091     0.08200
H2195       H  0.83026797  0.85962324  0.45706364     0.08200
H2196       H  0.79640131  0.86862151  0.43212995     0.08200
H2197       H  0.84944274  0.90701727  0.43647021     0.05000
C2198       C  0.62548093  0.67330172  0.35168288    -0.20900
C2199       C  0.61460654  0.63211445  0.35580991    -0.07400
C2200       C  0.63050461  0.62174842  0.38233412     0.13400
C2201       C  0.65868687  0.65298838  0.40271544    -0.20900
C2202       C  0.67213418  0.69445317  0.39689745    -0.07400
C2203       C  0.65432938  0.70457356  0.37157226     0.13400
C2204       C  0.66548335  0.74833353  0.36546079    -0.24300
H2205       H  0.61284108  0.68136583  0.33178765     0.14700
H2206       H  0.67187248  0.64515500  0.42238089     0.14800
C2207       C  0.61795936  0.57792110  0.38928929    -0.24200
H2208       H  0.64691145  0.75042770  0.34591953     0.05000
H2209       H  0.69818008  0.76682169  0.35873392     0.08200
H2210       H  0.65990113  0.76173033  0.38701030     0.08200
H2211       H  0.62908642  0.56567127  0.37033938     0.08200
H2212       H  0.58406166  0.55920250  0.39087355     0.08200
H2213       H  0.63122590  0.57506893  0.41193544     0.05000
C2214       C  0.83627338  0.84707885  0.15607399    -0.20900
C2215       C  0.81222178  0.80686671  0.16734312    -0.07400
C2216       C  0.82532029  0.79535975  0.19486706     0.13400
C2217       C  0.85994851  0.82484413  0.21139361    -0.20900
C2218       C  0.88289356  0.86562153  0.20118303    -0.07400
C2219       C  0.87137630  0.87663315  0.17261709     0.13400
C2220       C  0.89465741  0.91964135  0.16006474    -0.24300
H2221       H  0.82673501  0.85586124  0.13475717     0.14700
H2222       H  0.86899565  0.81595816  0.23292443     0.14800
C2223       C  0.80379624  0.75191540  0.20686212    -0.24200
H2224       H  0.92674264  0.92782689  0.15498008     0.05000
H2225       H  0.89447009  0.94154331  0.17762306     0.08200
H2226       H  0.88086331  0.92287186  0.13783351     0.08200
H2227       H  0.80106717  0.73051638  0.18760871     0.08200
H2228       H  0.77299337  0.74348901  0.21589105     0.08200
H2229       H  0.82087832  0.74797303  0.22666560     0.05000
C2230       C  0.62882482  0.62052212  0.18822947    -0.20900
C2231       C  0.61562480  0.63409869  0.21425425    -0.07400
C2232       C  0.62893865  0.67643220  0.21730022     0.13400
C2233       C  0.65703900  0.70414355  0.19547387    -0.20900
C2234       C  0.67143803  0.69072178  0.17017437    -0.07400
C2235       C  0.65635910  0.64825423  0.16605937     0.13400
C2236       C  0.67073534  0.63223671  0.13925364    -0.24300
H2237       H  0.61788860  0.58803220  0.18544732     0.14700
H2238       H  0.66865984  0.73674384  0.19856682     0.14800
C2239       C  0.61524887  0.69293130  0.24429814    -0.24200
H2240       H  0.65690522  0.59839679  0.14017426     0.05000
H2241       H  0.70457124  0.64619621  0.14040663     0.08200
H2242       H  0.66188221  0.63990067  0.11637443     0.08200
H2243       H  0.62320544  0.68429787  0.26715958     0.08200
H2244       H  0.58163348  0.68039143  0.24283788     0.08200
H2245       H  0.63015912  0.72689094  0.24374639     0.05000
C2246       C  0.70276418  0.74146503  0.01569213    -0.20900
C2247       C  0.74008975  0.75427474  0.49978812    -0.07400
C2248       C  0.77577114  0.76559914  0.01815885     0.13400
C2249       C  0.77324668  0.76390746  0.05126626    -0.20900
C2250       C  0.73610795  0.75107384  0.06712190    -0.07400
C2251       C  0.70026459  0.73970994  0.04892097     0.13400
C2252       C  0.65948293  0.72691349  0.06409888    -0.24300
H2253       H  0.67533727  0.73300835  0.00191923     0.14700
H2254       H  0.80072041  0.77227368  0.06494470     0.14800
C2255       C  0.81662324  0.77791249  0.00327778    -0.24200
H2256       H  0.63562681  0.72185229  0.04632607     0.05000
H2257       H  0.66246625  0.75118999  0.08072556     0.08200
H2258       H  0.64854084  0.69768095  0.07689300     0.08200
H2259       H  0.82844134  0.80726914  0.49082649     0.08200
H2260       H  0.81345885  0.75353345  0.48635774     0.08200
H2261       H  0.84009188  0.78219192  0.02116062     0.05000
C2262       C  0.70582581  0.72186431  0.65118340     0.79700
N2263       N  0.70415782  0.72220724  0.61908554    -0.78600
C2264       C  0.73679505  0.75069472  0.60234293     0.82100
N2265       N  0.77154360  0.77807067  0.61814044    -0.78600
C2266       C  0.77373284  0.77757664  0.65016423     0.82200
N2267       N  0.74047201  0.74979357  0.66639801    -0.80300
C2268       C  0.70703667  0.72663656  0.91569058     0.79700
N2269       N  0.70696977  0.72635945  0.94785040    -0.78600
C2270       C  0.74020552  0.75497306  0.96455335     0.82100
N2271       N  0.77356057  0.78369586  0.94862689    -0.78600
C2272       C  0.77420009  0.78395240  0.91654191     0.82200
N2273       N  0.74088438  0.75511924  0.90037650    -0.80300
C2274       C  0.72987992  0.94509780  0.64938708     0.79700
N2275       N  0.70094553  0.94955931  0.66508900    -0.78600
C2276       C  0.67032822  0.95093950  0.64911418     0.82100
N2277       N  0.66937302  0.94852667  0.61709811    -0.78600
C2278       C  0.69849331  0.94477700  0.60088413     0.82200
N2279       N  0.72877451  0.94300029  0.61727205    -0.80300
C2280       C  0.73234675  0.94672712  0.91396739     0.79700
N2281       N  0.70301216  0.95146386  0.89921256    -0.78600
C2282       C  0.67339638  0.95373530  0.91585636     0.82100
N2283       N  0.67337638  0.95090213  0.94779224    -0.78600
C2284       C  0.70214203  0.94544772  0.96311748     0.82200
N2285       N  0.73186612  0.94374083  0.94599477    -0.80300
C2286       C  0.01696973  0.75307910  0.65029607     0.79700
N2287       N  0.01130960  0.71862355  0.66478942    -0.78600
C2288       C  0.00772310  0.68623488  0.64783742     0.82100
N2289       N  0.00919440  0.68834043  0.61573891    -0.78600
C2290       C  0.01483044  0.72278606  0.60075027     0.82200
N2291       N  0.01803686  0.75476773  0.61823229    -0.80300
C2292       C  0.01295457  0.75205404  0.91379354     0.79700
N2293       N  0.00697160  0.71735338  0.89899286    -0.78600
C2294       C  0.00292239  0.68487738  0.91567143     0.82100
N2295       N  0.00395742  0.68692527  0.94762948    -0.78600
C2296       C  0.00889114  0.72084062  0.96311639     0.82200
N2297       N  0.01345012  0.75357225  0.94605257    -0.80300
O2298       O  0.87865087  0.48829004  0.74533043    -0.88700
C2299       C  0.58901918  0.60190580  0.83091981     1.11300
O2300       O  0.93680716  0.96722749  0.78191398    -1.36500
O2301       O  0.55937188  0.60512861  0.74954136    -0.90200
O2302       O  0.85368418  0.92113135  0.74543179    -0.90900
O2303       O  0.94383110  0.92981519  0.71480849    -0.79700
O2304       O  0.96944529  0.54838304  0.75289184    -1.01800
C2305       C  0.56300965  0.98595776  0.72465450     1.21400
O2306       O  0.98997996  0.93567259  0.78180935    -1.36700
Mn2307     Mn  0.98237932  0.97397920  0.81678760     1.82100
O2308       O  0.52907784  0.98134282  0.71587637    -0.78800
O2309       O  0.60137375  0.57930037  0.74887082    -0.88200
C2310       C  0.56173021  0.98371049  0.84024326     1.12400
C2311       C  0.59038611  0.60421241  0.73892429     1.07200
O2312       O  0.94208293  0.92786865  0.84834143    -0.79700
O2313       O  0.52124985  0.52048449  0.78292719    -1.33400
O2314       O  0.90975668  0.88785992  0.81047872    -0.98900
C2315       C  0.00438022  0.86708365  0.73529688     1.05900
Mn2316     Mn  0.58265135  0.53348202  0.78344257     1.48600
O2317       O  0.96848208  0.85566453  0.74554174    -0.88100
Mn2318     Mn  0.88368474  0.90733185  0.78083223     1.49600
O2319       O  0.87746606  0.48772836  0.81632625    -0.92000
C2320       C  0.97329629  0.54484917  0.72462503     1.19100
C2321       C  0.85282487  0.95177530  0.82654999     1.11100
Mn2322     Mn  0.98311338  0.97504880  0.74787911     1.81000
O2323       O  0.56771897  0.98701769  0.81198855    -0.97200
Mn2324     Mn  0.92317253  0.51529405  0.78165041     1.49300
C2325       C  0.85407503  0.95283516  0.73496731     1.07700
Mn2326     Mn  0.54967555  0.94192028  0.78197218     1.49900
C2327       C  0.00386446  0.86663869  0.82760970     1.10600
O2328       O  0.91085853  0.88873790  0.75143858    -1.03000
O2329       O  0.60029079  0.57748613  0.82009131    -0.92600
C2330       C  0.91481040  0.89570124  0.72322622     1.20600
O2331       O  0.56984933  0.98841850  0.75296951    -1.03300
O2332       O  0.55827683  0.60338289  0.81996436    -0.90700
O2333       O  0.53593700  0.89731163  0.81675822    -0.90300
O2334       O  0.85229607  0.91996779  0.81580995    -0.90400
Mn2335     Mn  0.51462897  0.57381268  0.78372475     1.47900
O2336       O  0.52802453  0.97915983  0.84952869    -0.78800
C2337       C  0.91295143  0.89408156  0.83883770     1.14900
O2338       O  0.97803922  0.51553278  0.71584353    -0.77600
O2339       O  0.97588860  0.51372357  0.84919196    -0.77200
Mn2340     Mn  0.94175575  0.87410642  0.78116308     1.51100
O2341       O  0.53646309  0.89812996  0.74636379    -0.89500
O2342       O  0.96801525  0.54666139  0.81222801    -0.97100
O2343       O  0.96799240  0.85551885  0.81716842    -0.92100
C2344       C  0.97029174  0.54244654  0.84051063     1.12700
C2345       C  0.96378118  0.63298131  0.87464309    -0.20900
C2346       C  0.99294383  0.64617086  0.89894909    -0.07400
C2347       C  0.51164241  0.62261048  0.90608868     0.13400
C2348       C  0.50142165  0.58710731  0.88804949    -0.20900
C2349       C  0.97327300  0.57477176  0.86275597    -0.07400
C2350       C  0.95350918  0.59778542  0.85660680     0.13400
C2351       C  0.92102310  0.58570620  0.83147355    -0.24300
H2352       H  0.94882398  0.65056332  0.86967853     0.14700
H2353       H  0.51729650  0.57031795  0.89256499     0.14800
C2354       C  0.54426671  0.63614674  0.93128958    -0.24200
H2355       H  0.90908500  0.60731051  0.83038024     0.05000
H2356       H  0.89473437  0.55518825  0.83670330     0.08200
H2357       H  0.93352085  0.58566325  0.80799136     0.08200
H2358       H  0.53107659  0.63582072  0.95474973     0.08200
H2359       H  0.56961320  0.66757680  0.92618796     0.08200
H2360       H  0.55743139  0.61557576  0.93242205     0.05000
C2361       C  0.98956498  0.80195606  0.90118658    -0.20900
C2362       C  0.01555740  0.78621838  0.89436475    -0.07400
C2363       C  0.54069876  0.80054483  0.86727412     0.13400
C2364       C  0.53739101  0.82812074  0.84683398    -0.20900
C2365       C  0.00908157  0.84141776  0.85230749    -0.07400
C2366       C  0.98591583  0.82919591  0.88046676     0.13400
C2367       C  0.95759170  0.84504197  0.88889503    -0.24300
H2368       H  0.97064390  0.79147364  0.92209609     0.14700
H2369       H  0.55596334  0.83817860  0.82571847     0.14800
C2370       C  0.57167411  0.78746921  0.85996050    -0.24200
H2371       H  0.94350900  0.83427285  0.91244731     0.05000
H2372       H  0.93252724  0.83390267  0.87127452     0.08200
H2373       H  0.97478736  0.87908703  0.88930096     0.08200
H2374       H  0.55603898  0.75424476  0.85428612     0.08200
H2375       H  0.59244727  0.79416718  0.88055783     0.08200
H2376       H  0.59079738  0.80401914  0.83930465     0.05000
C2377       C  0.46750771  0.63468216  0.68823397    -0.20900
C2378       C  0.99744718  0.64766306  0.66468967    -0.07400
C2379       C  0.01792270  0.62526023  0.65969579     0.13400
C2380       C  0.00753915  0.59029648  0.67821913    -0.20900
C2381       C  0.97822010  0.57794367  0.70248180    -0.07400
C2382       C  0.45815267  0.60094529  0.70745495     0.13400
C2383       C  0.42727245  0.59111966  0.73322948    -0.24300
H2384       H  0.45194041  0.65193349  0.69216453     0.14700
H2385       H  0.02407403  0.57391273  0.67489399     0.14800
C2386       C  0.05239914  0.63954510  0.63635405    -0.24200
H2387       H  0.41375024  0.61140033  0.73268791     0.05000
H2388       H  0.44240606  0.59566987  0.75644736     0.08200
H2389       H  0.40183646  0.55930088  0.73059341     0.08200
H2390       H  0.07677246  0.67125302  0.64246023     0.08200
H2391       H  0.04080288  0.63896805  0.61214268     0.08200
H2392       H  0.06637517  0.61965868  0.63643996     0.05000
C2393       C  0.98914003  0.79893058  0.66319941    -0.20900
C2394       C  0.01797052  0.78664578  0.66950553    -0.07400
C2395       C  0.54494104  0.80409170  0.69567482     0.13400
C2396       C  0.54090756  0.83176544  0.71569591    -0.20900
C2397       C  0.00988385  0.84171647  0.71079655    -0.07400
C2398       C  0.98446188  0.82588536  0.68368880     0.13400
C2399       C  0.95233055  0.83713234  0.67627907    -0.24300
H2400       H  0.96884342  0.78582813  0.64298218     0.14700
H2401       H  0.56089820  0.84431762  0.73613336     0.14800
C2402       C  0.57808160  0.79384064  0.70243379    -0.24200
H2403       H  0.93687255  0.82403052  0.65329197     0.05000
H2404       H  0.96646476  0.87098035  0.67523624     0.08200
H2405       H  0.92867011  0.82473910  0.69482488     0.08200
H2406       H  0.59805385  0.80084171  0.68145398     0.08200
H2407       H  0.56434068  0.76091519  0.70828506     0.08200
H2408       H  0.59764671  0.81188579  0.72275270     0.05000
C2409       C  0.53740625  0.75748525  0.51451412    -0.20900
C2410       C  0.00898157  0.72151761  0.99837617    -0.07400
C2411       C  0.98222549  0.68642764  0.51628818     0.13400
C2412       C  0.98521406  0.68809787  0.54941776    -0.20900
C2413       C  0.01376538  0.72378369  0.56554699    -0.07400
C2414       C  0.54026888  0.75908443  0.54777772     0.13400
C2415       C  0.57262244  0.79798732  0.56351030    -0.24300
H2416       H  0.55776575  0.78410826  0.00096649     0.14700
H2417       H  0.96465233  0.66127631  0.56292565     0.14800
C2418       C  0.94936128  0.64741758  0.50093189    -0.24200
H2419       H  0.59225617  0.82135247  0.54595951     0.05000
H2420       H  0.59273920  0.79129326  0.57852154     0.08200
H2421       H  0.55804556  0.81159534  0.57818944     0.08200
H2422       H  0.96301026  0.63256096  0.98712766     0.08200
H2423       H  0.92989076  0.65470984  0.98511511     0.08200
H2424       H  0.92894951  0.62491297  0.51867983     0.05000
C2425       C  0.83497911  0.97598175  0.87580014    -0.20900
C2426       C  0.82250162  0.94702951  0.85109497    -0.07400
C2427       C  0.78060974  0.91628850  0.84885792     0.13400
C2428       C  0.75246198  0.91618973  0.87065692    -0.20900
C2429       C  0.76476543  0.94589385  0.89471125    -0.07400
C2430       C  0.80672403  0.97621648  0.89734473     0.13400
C2431       C  0.82265699  0.01075491  0.92120362    -0.24300
H2432       H  0.86701288  0.99938895  0.87787209     0.14700
H2433       H  0.72024894  0.89331240  0.86841743     0.14800
C2434       C  0.76479586  0.88485596  0.82254495    -0.24200
H2435       H  0.84560555  0.00925733  0.93677877     0.05000
H2436       H  0.79710167  0.51397240  0.93323013     0.08200
H2437       H  0.83771697  0.04054359  0.90868973     0.08200
H2438       H  0.78230835  0.36274524  0.83011337     0.08200
H2439       H  0.77236628  0.90058275  0.79941258     0.08200
H2440       H  0.73099889  0.86460794  0.82353506     0.05000
C2441       C  0.57810767  0.95928839  0.89029706    -0.20900
C2442       C  0.59151858  0.97993100  0.86139507    -0.07400
C2443       C  0.63240879  0.99320525  0.85177610     0.13400
C2444       C  0.65791668  0.98516060  0.87079811    -0.20900
C2445       C  0.64421698  0.96309705  0.89892244    -0.07400
C2446       C  0.60368476  0.95030707  0.90902651     0.13400
C2447       C  0.58639119  0.92567870  0.93861154    -0.24300
H2448       H  0.54687879  0.94861059  0.89767058     0.14700
H2449       H  0.68901545  0.99570066  0.86312330     0.14800
C2450       C  0.64993640  0.01527129  0.82115172    -0.24200
H2451       H  0.55359490  0.91627369  0.94177735     0.05000
H2452       H  0.60356263  0.44474383  0.95958019     0.08200
H2453       H  0.58862276  0.89740580  0.93737447     0.08200
H2454       H  0.64637085  0.54284104  0.81938766     0.08200
H2455       H  0.63427519  0.99408012  0.80102929     0.08200
H2456       H  0.68312151  0.02585048  0.81892961     0.05000
C2457       C  0.75679153  0.91039535  0.68346683    -0.20900
C2458       C  0.76387720  0.94569658  0.66744002    -0.07400
C2459       C  0.80187312  0.98205821  0.67130533     0.13400
C2460       C  0.83127783  0.98283174  0.69227926    -0.20900
C2461       C  0.82377113  0.94808365  0.70979828    -0.07400
C2462       C  0.78622306  0.91078452  0.70428868     0.13400
C2463       C  0.77580275  0.87139229  0.72078319    -0.24300
H2464       H  0.72751922  0.88253468  0.68021058     0.14700
H2465       H  0.86004406  0.01116755  0.69543168     0.14800
C2466       C  0.81083004  0.02047751  0.65404671    -0.24200
H2467       H  0.74508077  0.84586664  0.71374932     0.05000
H2468       H  0.77558662  0.87551779  0.74671596     0.08200
H2469       H  0.79843943  0.86191143  0.71453948     0.08200
H2470       H  0.79207058  0.52939337  0.65639503     0.08200
H2471       H  0.80919987  0.01483783  0.62817676     0.08200
H2472       H  0.84184911  0.04641239  0.65986100     0.05000
C2473       C  0.57437171  0.95098107  0.67881184    -0.20900
C2474       C  0.59129994  0.98166294  0.70237141    -0.07400
C2475       C  0.63457606  0.50332403  0.70700756     0.13400
C2476       C  0.65884541  0.99211731  0.68910455    -0.20900
C2477       C  0.64187938  0.96066837  0.66638606    -0.07400
C2478       C  0.59904309  0.94009560  0.66085440     0.13400
C2479       C  0.57890924  0.90520057  0.63741198    -0.24300
H2480       H  0.54140979  0.93399554  0.67550920     0.14700
H2481       H  0.69199492  0.50879570  0.69300414     0.14800
C2482       C  0.65568082  0.53913550  0.72954662    -0.24200
H2483       H  0.54504021  0.89123487  0.63728774     0.05000
H2484       H  0.58619612  0.88092549  0.64355157     0.08200
H2485       H  0.58986987  0.91635235  0.61323485     0.08200
H2486       H  0.64468556  0.53003237  0.75391596     0.08200
H2487       H  0.65014885  0.56392443  0.72183468     0.08200
H2488       H  0.68940483  0.55198780  0.73000773     0.05000
C2489       C  0.71419174  0.92262874  0.54951695    -0.20900
C2490       C  0.69848630  0.94458203  0.56557726    -0.07400
C2491       C  0.68449690  0.96687091  0.54754551     0.13400
C2492       C  0.68641019  0.96629559  0.51446253    -0.20900
C2493       C  0.70222141  0.94462278  0.99838922    -0.07400
C2494       C  0.71602477  0.92204961  0.51626858     0.13400
C2495       C  0.73222915  0.89696634  0.00085179    -0.24300
H2496       H  0.72483028  0.90544076  0.56309937     0.14700
H2497       H  0.67596196  0.98374165  0.50100956     0.14800
C2498       C  0.66871585  0.99267643  0.56261871    -0.24200
H2499       H  0.73888252  0.87917088  0.51836190     0.05000
H2500       H  0.76175569  0.41845128  0.98792921     0.08200
H2501       H  0.70881424  0.87441845  0.98425442     0.08200
H2502       H  0.69189898  0.01506608  0.57942783     0.08200
H2503       H  0.63953966  0.97281342  0.57503476     0.08200
H2504       H  0.66227424  0.01032934  0.54486150     0.05000
C2505       C  0.82105785  0.79750156  0.87162936    -0.20900
C2506       C  0.81181481  0.81271734  0.89879482    -0.07400
C2507       C  0.83746086  0.85455070  0.90711976     0.13400
C2508       C  0.87147813  0.87973074  0.88805633    -0.20900
C2509       C  0.87994749  0.86469179  0.86027003    -0.07400
C2510       C  0.85407802  0.82267479  0.85207833     0.13400
C2511       C  0.86048184  0.80349354  0.82279769    -0.24300
H2512       H  0.80170170  0.76546175  0.86528673     0.14700
H2513       H  0.89044667  0.91190326  0.89412841     0.14800
C2514       C  0.82789323  0.87355852  0.93483506    -0.24200
H2515       H  0.83861128  0.76998795  0.82140541     0.05000
H2516       H  0.89173895  0.80774803  0.82285020     0.08200
H2517       H  0.85555330  0.81713128  0.80127158     0.08200
H2518       H  0.83031324  0.85969952  0.95714347     0.08200
H2519       H  0.79644480  0.86875353  0.93226055     0.08200
H2520       H  0.84950832  0.90709955  0.93655971     0.05000
C2521       C  0.62537997  0.67334509  0.85181116    -0.20900
C2522       C  0.61459409  0.63217602  0.85590446    -0.07400
C2523       C  0.63053188  0.62182624  0.88241129     0.13400
C2524       C  0.65867716  0.65307255  0.90280605    -0.20900
C2525       C  0.67204272  0.69452647  0.89701673    -0.07400
C2526       C  0.65418847  0.70462339  0.87171495     0.13400
C2527       C  0.66525235  0.74836565  0.86564233    -0.24300
H2528       H  0.61270344  0.68139332  0.83193306     0.14700
H2529       H  0.67190090  0.64525846  0.92245545     0.14800
C2530       C  0.61806565  0.57801083  0.88933444    -0.24200
H2531       H  0.64665840  0.75043977  0.84610929     0.05000
H2532       H  0.69794660  0.76691850  0.85892496     0.08200
H2533       H  0.65962590  0.76170266  0.88720687     0.08200
H2534       H  0.62922233  0.56581279  0.87036682     0.08200
H2535       H  0.58417192  0.55924106  0.89092265     0.08200
H2536       H  0.63135720  0.57516656  0.91197043     0.05000
C2537       C  0.83637845  0.84683684  0.65591490    -0.20900
C2538       C  0.81216056  0.80671333  0.66731448    -0.07400
C2539       C  0.82505422  0.79533349  0.69501695     0.13400
C2540       C  0.85963900  0.82486103  0.71155831    -0.20900
C2541       C  0.88275112  0.86556098  0.70120642    -0.07400
C2542       C  0.87143490  0.87643556  0.67248311     0.13400
C2543       C  0.89487309  0.91935473  0.65978219    -0.24300
H2544       H  0.82700199  0.85552880  0.63447051     0.14700
H2545       H  0.86852400  0.81606195  0.73321304     0.14800
C2546       C  0.80335907  0.75197952  0.70720485    -0.24200
H2547       H  0.92697532  0.92744577  0.65488486     0.05000
H2548       H  0.89460389  0.94138509  0.67717398     0.08200
H2549       H  0.88125317  0.92247586  0.63741708     0.08200
H2550       H  0.80063357  0.73040789  0.68809630     0.08200
H2551       H  0.77254886  0.74372162  0.71611437     0.08200
H2552       H  0.82031410  0.74811192  0.72714214     0.05000
C2553       C  0.62862461  0.62048491  0.68819674    -0.20900
C2554       C  0.61557523  0.63413551  0.71426906    -0.07400
C2555       C  0.62899249  0.67648977  0.71731313     0.13400
C2556       C  0.65705786  0.70414654  0.69544002    -0.20900
C2557       C  0.67132545  0.69065279  0.67009605    -0.07400
C2558       C  0.65611899  0.64816187  0.66597745     0.13400
C2559       C  0.67032931  0.63205752  0.63912131    -0.24300
H2560       H  0.61761788  0.58797680  0.68542548     0.14700
H2561       H  0.66877040  0.73676144  0.69853868     0.14800
C2562       C  0.61546126  0.69306389  0.74436194    -0.24200
H2563       H  0.65641153  0.59820750  0.64004284     0.05000
H2564       H  0.70415784  0.64592570  0.64020450     0.08200
H2565       H  0.66144064  0.63975409  0.61627143     0.08200
H2566       H  0.62347503  0.68442060  0.76719503     0.08200
H2567       H  0.58185054  0.68058429  0.74298329     0.08200
H2568       H  0.63043100  0.72702752  0.74379775     0.05000
C2569       C  0.70283851  0.74137068  0.51559397    -0.20900
C2570       C  0.74002112  0.75442342  0.99987804    -0.07400
C2571       C  0.77582162  0.76539760  0.51807769     0.13400
C2572       C  0.77327875  0.76368097  0.55118620    -0.20900
C2573       C  0.73614289  0.75089651  0.56703431    -0.07400
C2574       C  0.70032502  0.73961441  0.54882265     0.13400
C2575       C  0.65955991  0.72691872  0.56399001    -0.24300
H2576       H  0.67542905  0.73296835  0.50181426     0.14700
H2577       H  0.80073767  0.77200036  0.56487270     0.14800
C2578       C  0.81667226  0.77769319  0.50320117    -0.24200
H2579       H  0.63573196  0.72192380  0.54621113     0.05000
H2580       H  0.66260479  0.75122174  0.58061529     0.08200
H2581       H  0.64854145  0.69767457  0.57678341     0.08200
H2582       H  0.82837196  0.80747865  0.99089543     0.08200
H2583       H  0.81342216  0.75374994  0.98644234     0.08200
H2584       H  0.84012931  0.78194684  0.52108678     0.05000
loop_ 
_geom_bond_atom_site_label_1 
_geom_bond_atom_site_label_2 
_geom_bond_distance 
_geom_bond_site_symmetry_2 
_ccdc_geom_bond_type 
C1            N2   1.361       .  A
C1            N6   1.356       .  A
C1          C296   1.483       .  S
N2            C3   1.364       .  A
C3            N4   1.364       .  A
C3          C312   1.495       .  S
N4            C5   1.359       .  A
C5            N6   1.356       .  A
C5          C277   1.490       .  S
C7            N8   1.362       .  A
C7           N12   1.357       .  A
C7          C264   1.488       .  S
N8            C9   1.366       .  A
C9           N10   1.363       .  A
C9          C309   1.496       .  S
N10          C11   1.359       .  A
C11          N12   1.359       .  A
C11         C245   1.492       .  S
C13          N14   1.359       .  A
C13          N18   1.361       .  A
C13         C197   1.481       .  S
N14          C15   1.360       .  A
C15          N16   1.357       .  A
C15         C216   1.488       .  S
N16          C17   1.361       .  A
C17          N18   1.364       .  A
C17         C229   1.494       .  S
C19          N20   1.356       .  A
C19          N24   1.360       .  A
C19         C168   1.482       .  S
N20          C21   1.360       .  A
C21          N22   1.357       .  A
C21         C184   1.495       .  S
N22          C23   1.364       .  A
C23          N24   1.364       .  A
C23         C232   1.494       .  S
C25          N26   1.357       .  A
C25          N30   1.360       .  A
C25         C133   1.484       .  S
N26          C27   1.358       .  A
C27          N28   1.362       .  A
C27         C117   1.492       .  S
N28          C29   1.367       .  A
C29          N30   1.363       .  A
C29         C152   1.493       .  S
C31          N32   1.359       .  A
C31          N36   1.367       .  A
C31         C101   1.494       .  S
N32          C33   1.358       .  A
C33          N34   1.354       .  A
C33          C85   1.485       .  S
N34          C35   1.359       .  A
C35          N36   1.368       .  A
C35         C149   1.493       .  S
O37         Mn63   2.114   1_565  S
O37         C710   1.276       .  A
C38         C261   1.492       .  S
C38          O71   1.274       .  A
C38          O68   1.274       .  A
O39         Mn46   2.177       .  S
O39         Mn57   2.141       .  S
O39         Mn61   2.171       .  S
O39        Mn709   2.115       .  S
O40         Mn74   2.090       .  S
O40          C50   1.269       .  A
O41         Mn57   2.093       .  S
O41          C64   1.269       .  A
O42         Mn61   2.118       .  S
O42          C69   1.256       .  A
O43         Mn63   1.982       .  S
O43       Mn1366   1.962       .  S
O43          C59   1.220       .  S
C44         C213   1.494       .  S
C44          O47   1.256       .  A
C44          O70   1.219       .  S
O45         Mn46   2.180       .  S
O45         Mn79   2.113       .  S
O45         Mn61   2.177       .  S
O45       Mn1357   2.138       .  S
Mn46         O51   2.124       .  S
Mn46       O1367   2.135       .  S
Mn46        O724   2.126       .  S
Mn46       O1990   2.174       .  S
O47       Mn1353   2.120   1_455  S
O48         Mn55   2.108       .  S
O48          C50   1.274       .  A
C49         C181   1.496       .  S
C49          O75   1.258       .  A
C49          O62   1.214       .  S
C50         C293   1.487       .  S
O51          C76   1.257       .  A
O52         Mn55   2.112       .  S
O52         Mn74   2.144       .  S
O52       Mn1984   2.174   1_445  S
O52       Mn1999   2.169   1_445  S
O53         Mn57   1.950       .  S
O53         Mn79   1.971       .  S
O53          C76   1.216       .  S
C54         C136   1.489       .  S
C54          O56   1.275       .  A
C54        O1372   1.272       .  A
Mn55         O68   2.111       .  S
Mn55        O716   1.981   1_545  S
Mn55        O708   1.966   1_545  S
O56         Mn79   2.113       .  S
Mn57         O73   2.095       .  S
Mn57         O67   1.950       .  S
O58         Mn63   2.108   1_565  S
O58         C706   1.273       .  A
C59         C120   1.501       .  S
C59          O77   1.258       .  A
C60         C165   1.495       .  S
C60          O73   1.270       .  A
C60         O704   1.274       .  A
Mn61       O1339   2.120       .  S
Mn61        O723   2.125       .  S
Mn61       O1990   2.169       .  S
O62         Mn65   1.943       .  S
O62        Mn701   1.965       .  S
Mn63        O685   2.115   1_545  S
Mn63         O81   1.974       .  S
C64         C200   1.502       .  S
C64         O683   1.276       .  A
Mn65         O72   2.104       .  S
Mn65         O80   2.095       .  S
Mn65       O1337   2.138   1_455  S
Mn65         O70   1.963       .  S
C66         C104   1.495       .  S
C66          O82   1.275       .  A
C66        O1364   1.272       .  A
O67         Mn79   1.972       .  S
O67          C69   1.219       .  S
C69         C280   1.492       .  S
O70        Mn701   1.980       .  S
O71         Mn74   2.105       .  S
O72        C1358   1.272       .  A
Mn74       O1335   1.962   1_455  S
Mn74       O1373   1.956   1_455  S
O75       Mn1338   2.135   1_455  S
C76         C248   1.496       .  S
O77        Mn707   2.125   1_545  S
O78        Mn692   2.126   1_545  S
O78          C83   1.258       .  A
Mn79         O82   2.120       .  S
O80        C1346   1.272       .  A
O81       Mn1366   1.955       .  S
O81          C83   1.217       .  S
C83          C88   1.493       .  S
C84          C85   1.398       .  A
C84          C89   1.401       .  A
C84          H91   1.084       .  S
C85        C1378   1.416       .  A
C86          C87   1.411       .  A
C86        C1377   1.416   1_455  A
C86          C93   1.506       .  S
C87        C1380   1.407   1_455  A
C87          H92   1.084       .  S
C88          C89   1.422       .  A
C88        C1379   1.407       .  A
C89          C90   1.507       .  S
C90          H94   1.111       .  S
C90          H95   1.103       .  S
C90          H96   1.102       .  S
C93          H97   1.109       .  S
C93          H98   1.111       .  S
C93          H99   1.111       .  S
C100        C101   1.405       .  A
C100        C105   1.412       .  A
C100        H107   1.084       .  S
C101       C1394   1.418       .  A
C102        C103   1.409       .  A
C102       C1393   1.418       .  A
C102        C109   1.509       .  S
C103       C1396   1.404       .  A
C103        H108   1.084       .  S
C104        C105   1.416       .  A
C104       C1395   1.405       .  A
C105        C106   1.503       .  S
C106        H110   1.111       .  S
C106        H111   1.105       .  S
C106        H112   1.110       .  S
C109        H113   1.109       .  S
C109        H114   1.111       .  S
C109        H115   1.111       .  S
C116        C121   1.403       .  A
C116       C1409   1.401       .  A
C116        H123   1.084       .  S
C117        C118   1.416       .  A
C117       C1408   1.401       .  A
C118        C119   1.415       .  A
C118        C125   1.506       .  S
C119        C120   1.411       .  A
C119        H124   1.083       .  S
C120       C1413   1.421       .  A
C121       C1412   1.421       .  A
C121        C122   1.505       .  S
C122        H126   1.111       .  S
C122        H127   1.105       .  S
C122        H128   1.104       .  S
C125        H129   1.111       .  S
C125        H130   1.109       .  S
C125        H131   1.111       .  S
C132        C133   1.403       .  A
C132        C137   1.409       .  A
C132        H139   1.084       .  S
C133       C1426   1.414       .  A
C134        C135   1.406       .  A
C134       C1425   1.414       .  A
C134        C141   1.508       .  S
C135       C1428   1.405       .  A
C135        H140   1.084       .  S
C136        C137   1.416       .  A
C136       C1427   1.405       .  A
C137        C138   1.503       .  S
C138        H142   1.111       .  S
C138        H143   1.110       .  S
C138        H144   1.105       .  S
C141        H145   1.110       .  S
C141        H146   1.109       .  S
C141        H147   1.111       .  S
C148        C153   1.411       .  A
C148       C1764   1.405   1_554  A
C148        H478   1.084       .  S
C149       C1763   1.405       .  A
C149        C473   1.420       .  A
C150        C151   1.406       .  A
C150        C472   1.420   1_554  A
C150        C157   1.509       .  S
C151        C152   1.403       .  A
C151        H156   1.084       .  S
C152       C1445   1.419       .  A
C153       C1444   1.419       .  A
C153        C154   1.508       .  S
C154        H158   1.111       .  S
C154        H159   1.111       .  S
C154        H160   1.109       .  S
H155        C471   1.084       .  S
C157        H163   1.111       .  S
C157        H484   1.109   1_554  S
C157        H485   1.111   1_554  S
H161        C480   1.109       .  S
H162        C480   1.111       .  S
C164        C165   1.407       .  A
C164        C169   1.407       .  A
C164        H171   1.084       .  S
C165        C166   1.420       .  A
C166        C167   1.407       .  A
C166        C173   1.507       .  S
C167        C168   1.402       .  A
C167        H172   1.085       .  S
C168        C169   1.415       .  A
C169        C170   1.507       .  S
C170        H174   1.110       .  S
C170        H176   1.111       .  S
C170        H821   1.107       .  S
C173        H178   1.109       .  S
C173        H179   1.111       .  S
C173        H823   1.110       .  S
H175        C816   1.106       .  S
H177        C819   1.110       .  S
C180        C181   1.407       .  A
C180        C185   1.414       .  A
C180        H187   1.083       .  S
C181        C182   1.423       .  A
C182        C183   1.398       .  A
C182        C189   1.509       .  S
C183        C184   1.401       .  A
C183        H188   1.084       .  S
C184        C185   1.421       .  A
C185        C186   1.506       .  S
C186        H190   1.111       .  S
C186        H192   1.111       .  S
C186        H837   1.110       .  S
C189        H194   1.109       .  S
C189        H195   1.111       .  S
C189        H839   1.108       .  S
H191        C832   1.110       .  S
H193        C835   1.108       .  S
C196        C197   1.400       .  A
C196        C201   1.409       .  A
C196        H203   1.084       .  S
C197        C198   1.410       .  A
C198        C199   1.407       .  A
C198        C205   1.506       .  S
C199        C200   1.409       .  A
C199        H204   1.082       .  S
C200        C201   1.425       .  A
C201        C202   1.508       .  S
C202        H206   1.111       .  S
C202        H207   1.108       .  S
C202        H208   1.110       .  S
C205        H210   1.110       .  S
C205        H211   1.111       .  S
C205        H855   1.110       .  S
H209        C851   1.110       .  S
C212        C213   1.408       .  A
C212        C217   1.411       .  A
C212        H219   1.084       .  S
C213        C860   1.420       .  A
C214        C859   1.420   1_545  A
C214        C861   1.403   1_545  A
C214        C221   1.506       .  S
C215        C216   1.401       .  A
C215        C860   1.404       .  A
C215        H866   1.084       .  S
C216        C217   1.416       .  A
C217        C218   1.507       .  S
C218        H222   1.111       .  S
C218        H223   1.111       .  S
C218        H224   1.109       .  S
H220        C861   1.084   1_545  S
C221        H225   1.104       .  S
C221        H226   1.105       .  S
C221        H227   1.111       .  S
C228        C229   1.407       .  A
C228        C233   1.410       .  A
C228        H235   1.084       .  S
C229        C230   1.420       .  A
C230        C231   1.404       .  A
C230        C237   1.509       .  S
C231        C555   1.405   1_554  A
C231        H236   1.084       .  S
C232        C554   1.405       .  A
C232        C556   1.419       .  A
C233        C555   1.419   1_554  A
C233        C557   1.508       .  S
C234        C556   1.508       .  S
C234        H240   1.110       .  S
C234        H561   1.111       .  S
C234        H885   1.109       .  S
C237        H241   1.110       .  S
C237        H242   1.109       .  S
C237        H243   1.111       .  S
H238        C557   1.111       .  S
H239        C880   1.109       .  S
C244        C245   1.402       .  A
C244        C249   1.403       .  A
C244        H251   1.084       .  S
C245        C246   1.417       .  A
C246        C247   1.412       .  A
C246        C253   1.507       .  S
C247        C248   1.408       .  A
C247        H252   1.084       .  S
C248        C249   1.422       .  A
C249        C250   1.511       .  S
C250        H254   1.111       .  S
C250        H255   1.106       .  S
C250        H256   1.109       .  S
C253        H257   1.108       .  S
C253        H258   1.111       .  S
C253        H259   1.111       .  S
C260        C261   1.405       .  A
C260        C265   1.407       .  A
C260        H267   1.084       .  S
C261        C262   1.417       .  A
C262        C263   1.410       .  A
C262        C269   1.504       .  S
C263        C264   1.404       .  A
C263        H268   1.084       .  S
C264        C265   1.415       .  A
C265        C266   1.508       .  S
C266        H270   1.111       .  S
C266        H271   1.109       .  S
C266        H272   1.110       .  S
C269        H273   1.106       .  S
C269        H274   1.110       .  S
C269        H275   1.111       .  S
C276        C277   1.408       .  A
C276        C281   1.411       .  A
C276        H283   1.084       .  S
C277        C278   1.417       .  A
C278        C279   1.400       .  A
C278        C285   1.510       .  S
C279        C280   1.406       .  A
C279        H284   1.085       .  S
C280        C281   1.417       .  A
C281        C282   1.506       .  S
C282        H286   1.110       .  S
C282        H287   1.110       .  S
C282        H288   1.111       .  S
C285        H289   1.111       .  S
C285        H290   1.109       .  S
C285        H291   1.111       .  S
C292        C293   1.405       .  A
C292        C297   1.408       .  A
C292        H299   1.084       .  S
C293        C294   1.417       .  A
C294        C295   1.406       .  A
C294        C301   1.508       .  S
C295        C296   1.403       .  A
C295        H300   1.085       .  S
C296        C297   1.414       .  A
C297        C298   1.506       .  S
C298        H302   1.111       .  S
C298        H303   1.110       .  S
C298        H304   1.110       .  S
C301        H305   1.111       .  S
C301        H306   1.110       .  S
C301        H307   1.111       .  S
C308        C313   1.410       .  A
C308        C632   1.407   1_554  A
C308        H315   1.084       .  S
C309        C631   1.407       .  A
C309        C633   1.419       .  A
C310        C311   1.405       .  A
C310        C632   1.419   1_554  A
C310        C317   1.509       .  S
C311        C312   1.405       .  A
C311        H316   1.084       .  S
C312        C313   1.419       .  A
C313        C314   1.508       .  S
C314        H318   1.111       .  S
C314        H319   1.111       .  S
C314        H320   1.109       .  S
C317        H323   1.111       .  S
C317        H644   1.108   1_554  S
C317        H645   1.110   1_554  S
H321        C640   1.108       .  S
H322        C640   1.110       .  S
C324        N325   1.361       .  A
C324        N329   1.356       .  A
C324        C619   1.484       .  S
N325        C326   1.364       .  A
C326        N327   1.364       .  A
C326        C635   1.495       .  S
N327        C328   1.359       .  A
C328        N329   1.356       .  A
C328        C600   1.491       .  S
C330        N331   1.362       .  A
C330        N335   1.357       .  A
C330        C587   1.488       .  S
N331        C332   1.366       .  A
C332        N333   1.363       .  A
C332        C632   1.496       .  S
N333        C334   1.359       .  A
C334        N335   1.359       .  A
C334        C568   1.492       .  S
C336        N337   1.359       .  A
C336        N341   1.361       .  A
C336        C520   1.481       .  S
N337        C338   1.360       .  A
C338        N339   1.357       .  A
C338        C539   1.487       .  S
N339        C340   1.361       .  A
C340        N341   1.364       .  A
C340        C552   1.495       .  S
C342        N343   1.356       .  A
C342        N347   1.361       .  A
C342        C491   1.482       .  S
N343        C344   1.360       .  A
C344        N345   1.357       .  A
C344        C507   1.495       .  S
N345        C346   1.364       .  A
C346        N347   1.364       .  A
C346        C555   1.494       .  S
C348        N349   1.357       .  A
C348        N353   1.359       .  A
C348        C456   1.484       .  S
N349        C350   1.359       .  A
C350        N351   1.362       .  A
C350        C440   1.493       .  S
N351        C352   1.367       .  A
C352        N353   1.363       .  A
C352        C475   1.493       .  S
C354        N355   1.359       .  A
C354        N359   1.367       .  A
C354        C424   1.494       .  S
N355        C356   1.358       .  A
C356        N357   1.354       .  A
C356        C408   1.484       .  S
N357        C358   1.359       .  A
C358        N359   1.368       .  A
C358        C472   1.493       .  S
O360       Mn386   2.113   1_565  S
O360       C1033   1.276       .  A
C361        C584   1.493       .  S
C361        O394   1.274       .  A
C361        O391   1.274       .  A
O362       Mn369   2.177       .  S
O362       Mn380   2.141       .  S
O362       Mn384   2.171       .  S
O362      Mn1032   2.115       .  S
O363       Mn397   2.091       .  S
O363        C373   1.270       .  A
O364       Mn380   2.093       .  S
O364        C387   1.270       .  A
O365       Mn384   2.118       .  S
O365        C392   1.256       .  A
O366      Mn1689   1.961       .  S
O366       Mn386   1.981       .  S
O366        C382   1.220       .  S
C367        C536   1.493       .  S
C367        O370   1.256       .  A
C367        O393   1.219       .  S
O368      Mn1680   2.138       .  S
O368       Mn369   2.179       .  S
O368       Mn402   2.113       .  S
O368       Mn384   2.177       .  S
Mn369      O1690   2.135       .  S
Mn369       O374   2.124       .  S
Mn369      O1047   2.125       .  S
Mn369      O2313   2.174       .  S
O370      Mn1676   2.120   1_455  S
O371       Mn378   2.108       .  S
O371        C373   1.274       .  A
C372        C504   1.496       .  S
C372        O398   1.258       .  A
C372        O385   1.214       .  S
C373        C616   1.487       .  S
O374        C399   1.257       .  A
O375      Mn2307   2.174   1_445  S
O375       Mn378   2.112       .  S
O375       Mn397   2.144       .  S
O375      Mn2322   2.169   1_445  S
O376       Mn380   1.951       .  S
O376       Mn402   1.972       .  S
O376        C399   1.216       .  S
C377        C459   1.489       .  S
C377       O1695   1.272       .  A
C377        O379   1.275       .  A
Mn378       O391   2.112       .  S
Mn378      O1039   1.981   1_545  S
Mn378      O1031   1.966   1_545  S
O379       Mn402   2.113       .  S
Mn380       O396   2.095       .  S
Mn380       O390   1.950       .  S
O381       Mn386   2.106   1_565  S
O381       C1029   1.273       .  A
C382        C443   1.501       .  S
C382        O400   1.258       .  A
C383        C488   1.493       .  S
C383       O1027   1.273       .  A
C383        O396   1.270       .  A
Mn384      O1662   2.120       .  S
Mn384      O1046   2.125       .  S
Mn384      O2313   2.169       .  S
O385      Mn1024   1.965       .  S
O385       Mn388   1.943       .  S
Mn386      O1008   2.115   1_545  S
Mn386       O404   1.973       .  S
C387        C523   1.502       .  S
C387       O1006   1.276       .  A
Mn388       O395   2.104       .  S
Mn388       O403   2.095       .  S
Mn388      O1660   2.138   1_455  S
Mn388       O393   1.963       .  S
C389        C427   1.494       .  S
C389       O1687   1.272       .  A
C389        O405   1.275       .  A
O390       Mn402   1.972       .  S
O390        C392   1.219       .  S
C392        C603   1.492       .  S
O393      Mn1024   1.980       .  S
O394       Mn397   2.105       .  S
O395       C1681   1.272       .  A
Mn397      O1658   1.961   1_455  S
Mn397      O1696   1.956   1_455  S
O398      Mn1661   2.135   1_455  S
C399        C571   1.496       .  S
O400      Mn1030   2.125   1_545  S
O401      Mn1015   2.125   1_545  S
O401        C406   1.258       .  A
Mn402       O405   2.119       .  S
O403       C1669   1.272       .  A
O404      Mn1689   1.956       .  S
O404        C406   1.217       .  S
C406        C411   1.492       .  S
C407        C408   1.398       .  A
C407        C412   1.402       .  A
C407        H414   1.084       .  S
C408       C1701   1.415       .  A
C409       C1700   1.416   1_455  A
C409        C410   1.411       .  A
C409        C416   1.506       .  S
C410       C1703   1.407   1_455  A
C410        H415   1.084       .  S
C411       C1702   1.407       .  A
C411        C412   1.422       .  A
C412        C413   1.507       .  S
C413        H417   1.111       .  S
C413        H418   1.104       .  S
C413        H419   1.103       .  S
C416        H420   1.109       .  S
C416        H421   1.111       .  S
C416        H422   1.111       .  S
C423        C424   1.405       .  A
C423        C428   1.412       .  A
C423        H430   1.084       .  S
C424       C1717   1.418       .  A
C425       C1716   1.418       .  A
C425        C426   1.409       .  A
C425        C432   1.509       .  S
C426       C1719   1.404       .  A
C426        H431   1.084       .  S
C427       C1718   1.404       .  A
C427        C428   1.416       .  A
C428        C429   1.503       .  S
C429        H433   1.111       .  S
C429        H434   1.105       .  S
C429        H435   1.110       .  S
C432        H436   1.109       .  S
C432        H437   1.111       .  S
C432        H438   1.111       .  S
C439       C1732   1.401       .  A
C439        C444   1.403       .  A
C439        H446   1.084       .  S
C440       C1731   1.401       .  A
C440        C441   1.416       .  A
C441        C442   1.415       .  A
C441        C448   1.506       .  S
C442        C443   1.411       .  A
C442        H447   1.083       .  S
C443       C1736   1.421       .  A
C444       C1735   1.421       .  A
C444        C445   1.505       .  S
C445        H449   1.111       .  S
C445        H450   1.106       .  S
C445        H451   1.104       .  S
C448        H452   1.111       .  S
C448        H453   1.109       .  S
C448        H454   1.111       .  S
C455        C456   1.403       .  A
C455        C460   1.408       .  A
C455        H462   1.084       .  S
C456       C1749   1.414       .  A
C457       C1748   1.414       .  A
C457        C458   1.406       .  A
C457        C464   1.508       .  S
C458       C1751   1.405       .  A
C458        H463   1.084       .  S
C459       C1750   1.405       .  A
C459        C460   1.416       .  A
C460        C461   1.502       .  S
C461        H465   1.111       .  S
C461        H466   1.110       .  S
C461        H467   1.105       .  S
C464        H468   1.110       .  S
C464        H469   1.109       .  S
C464        H470   1.111       .  S
C471       C1441   1.405       .  A
C471        C476   1.411       .  A
C472       C1440   1.405   1_556  A
C473        C474   1.406       .  A
C473        C480   1.509       .  S
C474        C475   1.403       .  A
C474        H479   1.084       .  S
C475       C1768   1.419       .  A
C476       C1767   1.419       .  A
C476        C477   1.508       .  S
C477        H481   1.111       .  S
C477        H482   1.111       .  S
C477        H483   1.109       .  S
C480        H486   1.111       .  S
C487        C488   1.406       .  A
C487        C492   1.407       .  A
C487        H494   1.084       .  S
C488        C489   1.419       .  A
C489        C490   1.407       .  A
C489        C496   1.507       .  S
C490        C491   1.402       .  A
C490        H495   1.085       .  S
C491        C492   1.416       .  A
C492        C493   1.507       .  S
C493        H497   1.110       .  S
C493       H1144   1.107       .  S
C493        H499   1.111       .  S
C496       H1146   1.110       .  S
C496        H501   1.109       .  S
C496        H502   1.111       .  S
H498       C1139   1.106       .  S
H500       C1142   1.110       .  S
C503        C504   1.407       .  A
C503        C508   1.414       .  A
C503        H510   1.083       .  S
C504        C505   1.423       .  A
C505        C506   1.398       .  A
C505        C512   1.509       .  S
C506        C507   1.401       .  A
C506        H511   1.084       .  S
C507        C508   1.421       .  A
C508        C509   1.506       .  S
C509        H513   1.111       .  S
C509       H1160   1.110       .  S
C509        H515   1.111       .  S
C512       H1162   1.108       .  S
C512        H517   1.109       .  S
C512        H518   1.111       .  S
H514       C1155   1.110       .  S
H516       C1158   1.108       .  S
C519        C520   1.400       .  A
C519        C524   1.409       .  A
C519        H526   1.084       .  S
C520        C521   1.410       .  A
C521        C522   1.407       .  A
C521        C528   1.506       .  S
C522        C523   1.409       .  A
C522        H527   1.082       .  S
C523        C524   1.426       .  A
C524        C525   1.508       .  S
C525        H529   1.111       .  S
C525        H530   1.108       .  S
C525        H531   1.110       .  S
C528       H1178   1.110       .  S
C528        H533   1.110       .  S
C528        H534   1.111       .  S
H532       C1174   1.111       .  S
C535        C536   1.408       .  A
C535        C540   1.411       .  A
C535        H542   1.084       .  S
C536       C1183   1.420       .  A
C537       C1182   1.419   1_545  A
C537       C1184   1.403   1_545  A
C537        C544   1.506       .  S
C538       C1183   1.403       .  A
C538        C539   1.401       .  A
C538       H1189   1.084       .  S
C539        C540   1.416       .  A
C540        C541   1.507       .  S
C541        H545   1.111       .  S
C541        H546   1.111       .  S
C541        H547   1.109       .  S
H543       C1184   1.084   1_545  S
C544        H548   1.104       .  S
C544        H549   1.105       .  S
C544        H550   1.111       .  S
C551        C552   1.407       .  A
C551        C556   1.410       .  A
C551        H558   1.084       .  S
C552        C553   1.420       .  A
C553        C554   1.404       .  A
C553        C560   1.509       .  S
C554        H559   1.084       .  S
C557       H1208   1.109   1_554  S
C557        H563   1.110   1_554  S
C560        H564   1.110       .  S
C560        H565   1.109       .  S
C560        H566   1.111       .  S
H562       C1203   1.109   1_556  S
C567        C568   1.402       .  A
C567        C572   1.403       .  A
C567        H574   1.084       .  S
C568        C569   1.417       .  A
C569        C570   1.412       .  A
C569        C576   1.507       .  S
C570        C571   1.408       .  A
C570        H575   1.084       .  S
C571        C572   1.422       .  A
C572        C573   1.511       .  S
C573        H577   1.111       .  S
C573        H578   1.106       .  S
C573        H579   1.109       .  S
C576        H580   1.108       .  S
C576        H581   1.111       .  S
C576        H582   1.111       .  S
C583        C584   1.405       .  A
C583        C588   1.407       .  A
C583        H590   1.084       .  S
C584        C585   1.418       .  A
C585        C586   1.410       .  A
C585        C592   1.504       .  S
C586        C587   1.404       .  A
C586        H591   1.084       .  S
C587        C588   1.415       .  A
C588        C589   1.508       .  S
C589        H593   1.111       .  S
C589        H594   1.109       .  S
C589        H595   1.110       .  S
C592        H596   1.106       .  S
C592        H597   1.110       .  S
C592        H598   1.111       .  S
C599        C600   1.408       .  A
C599        C604   1.411       .  A
C599        H606   1.084       .  S
C600        C601   1.417       .  A
C601        C602   1.401       .  A
C601        C608   1.510       .  S
C602        C603   1.406       .  A
C602        H607   1.085       .  S
C603        C604   1.417       .  A
C604        C605   1.506       .  S
C605        H609   1.110       .  S
C605        H610   1.110       .  S
C605        H611   1.111       .  S
C608        H612   1.111       .  S
C608        H613   1.109       .  S
C608        H614   1.111       .  S
C615        C616   1.405       .  A
C615        C620   1.408       .  A
C615        H622   1.084       .  S
C616        C617   1.417       .  A
C617        C618   1.406       .  A
C617        C624   1.508       .  S
C618        C619   1.403       .  A
C618        H623   1.085       .  S
C619        C620   1.414       .  A
C620        C621   1.506       .  S
C621        H625   1.111       .  S
C621        H626   1.110       .  S
C621        H627   1.110       .  S
C624        H628   1.111       .  S
C624        H629   1.110       .  S
C624        H630   1.111       .  S
C631        C636   1.410       .  A
C631        H638   1.084       .  S
C633        C634   1.405       .  A
C633        C640   1.509       .  S
C634        C635   1.405       .  A
C634        H639   1.084       .  S
C635        C636   1.419       .  A
C636        C637   1.508       .  S
C637        H641   1.111       .  S
C637        H642   1.111       .  S
C637        H643   1.109       .  S
C640        H646   1.111       .  S
C647        N648   1.361       .  A
C647        N652   1.356       .  A
C647        C942   1.484       .  S
N648        C649   1.364       .  A
C649        N650   1.364       .  A
C649        C958   1.495       .  S
N650        C651   1.359       .  A
C651        N652   1.356       .  A
C651        C923   1.491       .  S
C653        N654   1.362       .  A
C653        N658   1.357       .  A
C653        C910   1.488       .  S
N654        C655   1.366       .  A
C655        N656   1.363       .  A
C655        C955   1.496       .  S
N656        C657   1.359       .  A
C657        N658   1.359       .  A
C657        C891   1.492       .  S
C659        N660   1.358       .  A
C659        N664   1.361       .  A
C659        C843   1.481       .  S
N660        C661   1.360       .  A
C661        N662   1.357       .  A
C661        C862   1.487       .  S
N662        C663   1.361       .  A
C663        N664   1.364       .  A
C663        C875   1.495       .  S
C665        N666   1.356       .  A
C665        N670   1.361       .  A
C665        C814   1.483       .  S
N666        C667   1.360       .  A
C667        N668   1.357       .  A
C667        C830   1.495       .  S
N668        C669   1.364       .  A
C669        N670   1.364       .  A
C669        C878   1.495       .  S
C671        N672   1.357       .  A
C671        N676   1.360       .  A
C671        C779   1.484       .  S
N672        C673   1.358       .  A
C673        N674   1.362       .  A
C673        C763   1.491       .  S
N674        C675   1.367       .  A
C675        N676   1.363       .  A
C675        C798   1.492       .  S
C677        N678   1.359       .  A
C677        N682   1.367       .  A
C677        C747   1.494       .  S
N678        C679   1.358       .  A
C679        N680   1.354       .  A
C679        C731   1.485       .  S
N680        C681   1.359       .  A
C681        N682   1.368       .  A
C681        C795   1.493       .  S
O683       Mn709   2.116       .  S
C684        C907   1.493       .  S
C684        O717   1.274       .  A
C684        O714   1.274       .  A
O685       Mn692   2.177       .  S
O685       Mn703   2.140       .  S
O685       Mn707   2.171       .  S
O686       Mn720   2.091       .  S
O686        C696   1.270       .  A
O687       Mn703   2.094       .  S
O687        C710   1.270       .  A
O688       Mn707   2.119       .  S
O688        C715   1.255       .  A
O689      Mn2012   1.963       .  S
O689       Mn709   1.983       .  S
O689        C705   1.221       .  S
C690        C859   1.493       .  S
C690        O693   1.256       .  A
C690        O716   1.219       .  S
O691      Mn2003   2.138       .  S
O691       Mn692   2.179       .  S
O691       Mn725   2.113       .  S
O691       Mn707   2.177       .  S
Mn692      O2013   2.135       .  S
Mn692       O697   2.124       .  S
Mn692      O1344   2.174   1_565  S
O693      Mn1999   2.119   1_455  S
O694       Mn701   2.107       .  S
O694        C696   1.274       .  A
C695        C827   1.497       .  S
C695        O721   1.258       .  A
C695        O708   1.214       .  S
C696        C939   1.487       .  S
O697        C722   1.257       .  A
O698      Mn1338   2.174   1_455  S
O698       Mn701   2.112       .  S
O698       Mn720   2.145       .  S
O698      Mn1353   2.169   1_455  S
O699       Mn703   1.951       .  S
O699       Mn725   1.972       .  S
O699        C722   1.216       .  S
C700        C782   1.489       .  S
C700       O2018   1.272       .  A
C700        O702   1.275       .  A
Mn701       O714   2.111       .  S
O702       Mn725   2.113       .  S
Mn703       O719   2.094       .  S
Mn703       O713   1.950       .  S
O704       Mn709   2.108       .  S
C705        C766   1.501       .  S
C705        O723   1.258       .  A
C706        C811   1.492       .  S
C706        O719   1.270       .  A
Mn707      O1985   2.119       .  S
Mn707      O1344   2.169   1_565  S
O708       Mn711   1.943       .  S
Mn709       O727   1.975       .  S
C710        C846   1.503       .  S
Mn711       O718   2.104       .  S
Mn711       O726   2.094       .  S
Mn711      O1983   2.138   1_455  S
Mn711       O716   1.964       .  S
C712        C750   1.495       .  S
C712       O2010   1.272       .  A
C712        O728   1.275       .  A
O713       Mn725   1.972       .  S
O713        C715   1.218       .  S
C715        C926   1.492       .  S
O717       Mn720   2.105       .  S
O718       C2004   1.272       .  A
Mn720      O1981   1.963   1_455  S
Mn720      O2019   1.955   1_455  S
O721      Mn1984   2.135   1_455  S
C722        C894   1.496       .  S
O724        C729   1.259       .  A
Mn725       O728   2.120       .  S
O726       C1992   1.272       .  A
O727      Mn2012   1.955       .  S
O727        C729   1.218       .  S
C729        C734   1.494       .  S
C730        C731   1.398       .  A
C730        C735   1.401       .  A
C730        H737   1.084       .  S
C731       C2024   1.416       .  A
C732       C2023   1.416   1_455  A
C732        C733   1.411       .  A
C732        C739   1.506       .  S
C733       C2026   1.408   1_455  A
C733        H738   1.084       .  S
C734       C2025   1.408       .  A
C734        C735   1.422       .  A
C735        C736   1.506       .  S
C736        H740   1.111       .  S
C736        H741   1.103       .  S
C736        H742   1.102       .  S
C739        H743   1.109       .  S
C739        H744   1.111       .  S
C739        H745   1.111       .  S
C746        C747   1.405       .  A
C746        C751   1.412       .  A
C746        H753   1.084       .  S
C747       C2040   1.418       .  A
C748       C2039   1.418       .  A
C748        C749   1.409       .  A
C748        C755   1.509       .  S
C749       C2042   1.405       .  A
C749        H754   1.084       .  S
C750       C2041   1.405       .  A
C750        C751   1.416       .  A
C751        C752   1.503       .  S
C752        H756   1.111       .  S
C752        H757   1.105       .  S
C752        H758   1.110       .  S
C755        H759   1.109       .  S
C755        H760   1.111       .  S
C755        H761   1.111       .  S
C762       C2055   1.400       .  A
C762        C767   1.403       .  A
C762        H769   1.084       .  S
C763       C2054   1.400       .  A
C763        C764   1.415       .  A
C764        C765   1.415       .  A
C764        C771   1.506       .  S
C765        C766   1.411       .  A
C765        H770   1.083       .  S
C766       C2059   1.421       .  A
C767       C2058   1.421       .  A
C767        C768   1.504       .  S
C768        H772   1.111       .  S
C768        H773   1.104       .  S
C768        H774   1.103       .  S
C771        H775   1.111       .  S
C771        H776   1.109       .  S
C771        H777   1.111       .  S
C778        C779   1.403       .  A
C778        C783   1.409       .  A
C778        H785   1.084       .  S
C779       C2072   1.414       .  A
C780       C2071   1.414       .  A
C780        C781   1.406       .  A
C780        C787   1.508       .  S
C781       C2074   1.405       .  A
C781        H786   1.084       .  S
C782       C2073   1.405       .  A
C782        C783   1.416       .  A
C783        C784   1.502       .  S
C784        H788   1.111       .  S
C784        H789   1.110       .  S
C784        H790   1.105       .  S
C787        H791   1.110       .  S
C787        H792   1.109       .  S
C787        H793   1.111       .  S
C794       C2410   1.405   1_554  A
C794        C799   1.411       .  A
C794       H1124   1.084       .  S
C795       C2409   1.405       .  A
C795       C1119   1.420       .  A
C796       C1118   1.420   1_554  A
C796        C797   1.406       .  A
C796        C803   1.509       .  S
C797        C798   1.403       .  A
C797        H802   1.084       .  S
C798       C2091   1.419       .  A
C799       C2090   1.419       .  A
C799        C800   1.508       .  S
C800        H804   1.111       .  S
C800        H805   1.111       .  S
C800        H806   1.109       .  S
H801       C1117   1.084       .  S
C803       H1130   1.109   1_554  S
C803       H1131   1.111   1_554  S
C803        H809   1.111       .  S
H807       C1126   1.109       .  S
H808       C1126   1.111       .  S
C810        C811   1.406       .  A
C810        C815   1.407       .  A
C810        H817   1.084   1_565  S
C811        C812   1.419       .  A
C812        C813   1.407       .  A
C812        C819   1.507       .  S
C813        C814   1.403       .  A
C813        H818   1.085       .  S
C814        C815   1.416       .  A
C815        C816   1.507   1_565  S
C816        H820   1.110       .  S
C816        H822   1.111       .  S
C819        H824   1.110       .  S
C819        H825   1.111       .  S
C826        C827   1.407       .  A
C826        C831   1.414       .  A
C826        H833   1.083       .  S
C827        C828   1.423       .  A
C828        C829   1.399       .  A
C828        C835   1.509   1_565  S
C829        C830   1.401       .  A
C829        H834   1.084       .  S
C830        C831   1.421       .  A
C831        C832   1.506       .  S
C832        H836   1.111       .  S
C832        H838   1.111       .  S
C835        H840   1.109   1_545  S
C835        H841   1.111       .  S
C842        C843   1.399       .  A
C842        C847   1.409       .  A
C842        H849   1.084       .  S
C843        C844   1.409       .  A
C844        C845   1.407       .  A
C844        C851   1.506   1_565  S
C845        C846   1.410       .  A
C845        H850   1.082   1_565  S
C846        C847   1.426       .  A
C847        C848   1.509       .  S
C848        H852   1.111       .  S
C848        H853   1.109       .  S
C848        H854   1.109       .  S
C851        H856   1.110       .  S
C851        H857   1.111       .  S
C858        C859   1.408       .  A
C858        C863   1.411       .  A
C858        H865   1.084       .  S
C860        C867   1.506       .  S
C861        C862   1.401       .  A
C862        C863   1.416       .  A
C863        C864   1.507       .  S
C864        H868   1.111       .  S
C864        H869   1.111       .  S
C864        H870   1.109       .  S
C867        H871   1.104       .  S
C867        H872   1.105       .  S
C867        H873   1.111       .  S
C874        C875   1.408       .  A
C874        C879   1.410       .  A
C874        H881   1.084       .  S
C875        C876   1.420       .  A
C876        C877   1.404       .  A
C876        C883   1.510       .  S
C877       C1201   1.405   1_554  A
C877        H882   1.084       .  S
C878       C1200   1.405       .  A
C878       C1202   1.419       .  A
C879       C1201   1.419   1_554  A
C879       C1203   1.508       .  S
C880       C1202   1.508       .  S
C880       H1207   1.111       .  S
C880        H886   1.110       .  S
C883        H887   1.110   1_565  S
C883        H888   1.109       .  S
C883        H889   1.111   1_565  S
H884       C1203   1.111       .  S
C890        C891   1.402       .  A
C890        C895   1.403       .  A
C890        H897   1.084       .  S
C891        C892   1.417       .  A
C892        C893   1.412       .  A
C892        C899   1.507       .  S
C893        C894   1.408       .  A
C893        H898   1.084       .  S
C894        C895   1.422       .  A
C895        C896   1.511       .  S
C896        H900   1.111       .  S
C896        H901   1.106       .  S
C896        H902   1.109       .  S
C899        H903   1.108       .  S
C899        H904   1.111       .  S
C899        H905   1.111       .  S
C906        C907   1.405       .  A
C906        C911   1.407       .  A
C906        H913   1.084       .  S
C907        C908   1.418       .  A
C908        C909   1.410       .  A
C908        C915   1.504       .  S
C909        C910   1.404       .  A
C909        H914   1.084       .  S
C910        C911   1.415       .  A
C911        C912   1.508       .  S
C912        H916   1.111       .  S
C912        H917   1.109       .  S
C912        H918   1.110       .  S
C915        H919   1.106       .  S
C915        H920   1.110       .  S
C915        H921   1.111       .  S
C922        C923   1.408       .  A
C922        C927   1.411       .  A
C922        H929   1.084       .  S
C923        C924   1.417       .  A
C924        C925   1.400       .  A
C924        C931   1.510       .  S
C925        C926   1.406       .  A
C925        H930   1.085       .  S
C926        C927   1.417       .  A
C927        C928   1.506       .  S
C928        H932   1.110       .  S
C928        H933   1.110       .  S
C928        H934   1.111       .  S
C931        H935   1.111       .  S
C931        H936   1.109       .  S
C931        H937   1.111       .  S
C938        C939   1.405       .  A
C938        C943   1.408       .  A
C938        H945   1.084       .  S
C939        C940   1.417       .  A
C940        C941   1.406       .  A
C940        C947   1.508       .  S
C941        C942   1.403       .  A
C941        H946   1.085       .  S
C942        C943   1.414       .  A
C943        C944   1.506       .  S
C944        H948   1.111       .  S
C944        H949   1.110       .  S
C944        H950   1.110       .  S
C947        H951   1.111       .  S
C947        H952   1.110       .  S
C947        H953   1.111       .  S
C954       C1278   1.407   1_554  A
C954        C959   1.410       .  A
C954        H961   1.084       .  S
C955       C1277   1.407       .  A
C955       C1279   1.419       .  A
C956       C1278   1.419   1_554  A
C956        C957   1.405       .  A
C956        C963   1.509       .  S
C957        C958   1.405       .  A
C957        H962   1.084       .  S
C958        C959   1.419       .  A
C959        C960   1.508       .  S
C960        H964   1.111       .  S
C960        H965   1.110       .  S
C960        H966   1.109       .  S
C963       H1290   1.108   1_554  S
C963       H1291   1.110   1_554  S
C963        H969   1.111       .  S
H967       C1286   1.108       .  S
H968       C1286   1.110       .  S
C970        N971   1.361       .  A
C970        N975   1.356       .  A
C970       C1265   1.484       .  S
N971        C972   1.364       .  A
C972        N973   1.364       .  A
C972       C1281   1.496       .  S
N973        C974   1.359       .  A
C974        N975   1.357       .  A
C974       C1246   1.491       .  S
C976        N977   1.362       .  A
C976        N981   1.357       .  A
C976       C1233   1.488       .  S
N977        C978   1.366       .  A
C978        N979   1.363       .  A
C978       C1278   1.496       .  S
N979        C980   1.359       .  A
C980        N981   1.359       .  A
C980       C1214   1.492       .  S
C982        N983   1.358       .  A
C982        N987   1.361       .  A
C982       C1166   1.481       .  S
N983        C984   1.359       .  A
C984        N985   1.357       .  A
C984       C1185   1.487       .  S
N985        C986   1.361       .  A
C986        N987   1.364       .  A
C986       C1198   1.495       .  S
C988        N989   1.356       .  A
C988        N993   1.361       .  A
C988       C1137   1.484       .  S
N989        C990   1.360       .  A
C990        N991   1.357       .  A
C990       C1153   1.495       .  S
N991        C992   1.364       .  A
C992        N993   1.364       .  A
C992       C1201   1.494       .  S
C994        N995   1.357       .  A
C994        N999   1.360       .  A
C994       C1102   1.484       .  S
N995        C996   1.358       .  A
C996        N997   1.362       .  A
C996       C1086   1.491       .  S
N997        C998   1.367       .  A
C998        N999   1.363       .  A
C998       C1121   1.493       .  S
C1000      N1001   1.359       .  A
C1000      N1005   1.367       .  A
C1000      C1070   1.494       .  S
N1001      C1002   1.358       .  A
C1002      N1003   1.354       .  A
C1002      C1054   1.485       .  S
N1003      C1004   1.359       .  A
C1004      N1005   1.368       .  A
C1004      C1118   1.493       .  S
O1006     Mn1032   2.115       .  S
C1007      C1230   1.493       .  S
C1007      O1040   1.274       .  A
C1007      O1037   1.274       .  A
O1008     Mn1015   2.177       .  S
O1008     Mn1026   2.140       .  S
O1008     Mn1030   2.171       .  S
O1009     Mn1043   2.091       .  S
O1009      C1019   1.270       .  A
O1010     Mn1026   2.095       .  S
O1010      C1033   1.270       .  A
O1011     Mn1030   2.119       .  S
O1011      C1038   1.255       .  A
O1012     Mn2335   1.963       .  S
O1012     Mn1032   1.983       .  S
O1012      C1028   1.221       .  S
C1013      C1182   1.493       .  S
C1013      O1016   1.256       .  A
C1013      O1039   1.219       .  S
O1014     Mn2326   2.138       .  S
O1014     Mn1015   2.179       .  S
O1014     Mn1048   2.113       .  S
O1014     Mn1030   2.178       .  S
Mn1015     O2336   2.134       .  S
Mn1015     O1020   2.123       .  S
Mn1015     O1667   2.174   1_565  S
O1016     Mn2322   2.119   1_455  S
O1017     Mn1024   2.107       .  S
O1017      C1019   1.274       .  A
C1018      C1150   1.496       .  S
C1018      O1044   1.258       .  A
C1018      O1031   1.214       .  S
C1019      C1262   1.487       .  S
O1020      C1045   1.257       .  A
O1021     Mn1661   2.174   1_455  S
O1021     Mn1024   2.112       .  S
O1021     Mn1043   2.145       .  S
O1021     Mn1676   2.169   1_455  S
O1022     Mn1026   1.951       .  S
O1022     Mn1048   1.972       .  S
O1022      C1045   1.216       .  S
C1023      C1105   1.490       .  S
C1023      O2341   1.272       .  A
C1023      O1025   1.275       .  A
Mn1024     O1037   2.111       .  S
O1025     Mn1048   2.114       .  S
Mn1026     O1042   2.094       .  S
Mn1026     O1036   1.950       .  S
O1027     Mn1032   2.108       .  S
C1028      C1089   1.501       .  S
C1028      O1046   1.258       .  A
C1029      C1134   1.490       .  S
C1029      O1042   1.270       .  A
Mn1030     O2308   2.119       .  S
Mn1030     O1667   2.169   1_565  S
O1031     Mn1034   1.943       .  S
Mn1032     O1050   1.974       .  S
C1033      C1169   1.503       .  S
Mn1034     O1041   2.104       .  S
Mn1034     O1049   2.094       .  S
Mn1034     O2306   2.138   1_455  S
Mn1034     O1039   1.963       .  S
C1035      C1073   1.495       .  S
C1035      O2333   1.272       .  A
C1035      O1051   1.275       .  A
O1036     Mn1048   1.972       .  S
O1036      C1038   1.218       .  S
C1038      C1249   1.492       .  S
O1040     Mn1043   2.106       .  S
O1041      C2327   1.272       .  A
Mn1043     O2304   1.963   1_455  S
Mn1043     O2342   1.956   1_455  S
O1044     Mn2307   2.135   1_455  S
C1045      C1217   1.496       .  S
O1047      C1052   1.258       .  A
Mn1048     O1051   2.119       .  S
O1049      C2315   1.272       .  A
O1050     Mn2335   1.956       .  S
O1050      C1052   1.218       .  S
C1052      C1057   1.493       .  S
C1053      C1054   1.398       .  A
C1053      C1058   1.401       .  A
C1053      H1060   1.084       .  S
C1054      C2347   1.416       .  A
C1055      C2346   1.416   1_455  A
C1055      C1056   1.411       .  A
C1055      C1062   1.506       .  S
C1056      C2349   1.408   1_455  A
C1056      H1061   1.084       .  S
C1057      C2348   1.408       .  A
C1057      C1058   1.422       .  A
C1058      C1059   1.506       .  S
C1059      H1063   1.111       .  S
C1059      H1064   1.103       .  S
C1059      H1065   1.102       .  S
C1062      H1066   1.109       .  S
C1062      H1067   1.111       .  S
C1062      H1068   1.111       .  S
C1069      C1070   1.405       .  A
C1069      C1074   1.412       .  A
C1069      H1076   1.084       .  S
C1070      C2363   1.418       .  A
C1071      C2362   1.418       .  A
C1071      C1072   1.409       .  A
C1071      C1078   1.509       .  S
C1072      C2365   1.405       .  A
C1072      H1077   1.084       .  S
C1073      C2364   1.404       .  A
C1073      C1074   1.416       .  A
C1074      C1075   1.503       .  S
C1075      H1079   1.111       .  S
C1075      H1080   1.105       .  S
C1075      H1081   1.110       .  S
C1078      H1082   1.109       .  S
C1078      H1083   1.111       .  S
C1078      H1084   1.111       .  S
C1085      C2378   1.400       .  A
C1085      C1090   1.403       .  A
C1085      H1092   1.084       .  S
C1086      C2377   1.400       .  A
C1086      C1087   1.415       .  A
C1087      C1088   1.415       .  A
C1087      C1094   1.506       .  S
C1088      C1089   1.411       .  A
C1088      H1093   1.083       .  S
C1089      C2382   1.421       .  A
C1090      C2381   1.421       .  A
C1090      C1091   1.504       .  S
C1091      H1095   1.111       .  S
C1091      H1096   1.103       .  S
C1091      H1097   1.103       .  S
C1094      H1098   1.111       .  S
C1094      H1099   1.109       .  S
C1094      H1100   1.111       .  S
C1101      C1102   1.403       .  A
C1101      C1106   1.408       .  A
C1101      H1108   1.084       .  S
C1102      C2395   1.414       .  A
C1103      C2394   1.414       .  A
C1103      C1104   1.406       .  A
C1103      C1110   1.508       .  S
C1104      C2397   1.405       .  A
C1104      H1109   1.084       .  S
C1105      C2396   1.405       .  A
C1105      C1106   1.416       .  A
C1106      C1107   1.502       .  S
C1107      H1111   1.111       .  S
C1107      H1112   1.110       .  S
C1107      H1113   1.105       .  S
C1110      H1114   1.110       .  S
C1110      H1115   1.109       .  S
C1110      H1116   1.111       .  S
C1117      C2087   1.405       .  A
C1117      C1122   1.411       .  A
C1118      C2086   1.405   1_556  A
C1119      C1120   1.406       .  A
C1119      C1126   1.509       .  S
C1120      C1121   1.403       .  A
C1120      H1125   1.084       .  S
C1121      C2414   1.419       .  A
C1122      C2413   1.419       .  A
C1122      C1123   1.508       .  S
C1123      H1127   1.111       .  S
C1123      H1128   1.111       .  S
C1123      H1129   1.109       .  S
C1126      H1132   1.111       .  S
C1133      C1134   1.405       .  A
C1133      C1138   1.407       .  A
C1133      H1140   1.084       .  S
C1134      C1135   1.418       .  A
C1135      C1136   1.406       .  A
C1135      C1142   1.507       .  S
C1136      C1137   1.403       .  A
C1136      H1141   1.085       .  S
C1137      C1138   1.417       .  A
C1138      C1139   1.507   1_565  S
C1139      H1143   1.110       .  S
C1139      H1145   1.111       .  S
C1142      H1147   1.110       .  S
C1142      H1148   1.111       .  S
C1149      C1150   1.407       .  A
C1149      C1154   1.414       .  A
C1149      H1156   1.083       .  S
C1150      C1151   1.423       .  A
C1151      C1152   1.398       .  A
C1151      C1158   1.509   1_565  S
C1152      C1153   1.401       .  A
C1152      H1157   1.084       .  S
C1153      C1154   1.420       .  A
C1154      C1155   1.506       .  S
C1155      H1159   1.111       .  S
C1155      H1161   1.111       .  S
C1158      H1163   1.109   1_545  S
C1158      H1164   1.111       .  S
C1165      C1166   1.399       .  A
C1165      C1170   1.409       .  A
C1165      H1172   1.084       .  S
C1166      C1167   1.409       .  A
C1167      C1168   1.407       .  A
C1167      C1174   1.506   1_565  S
C1168      C1169   1.410       .  A
C1168      H1173   1.083   1_565  S
C1169      C1170   1.427       .  A
C1170      C1171   1.509       .  S
C1171      H1175   1.111       .  S
C1171      H1176   1.109       .  S
C1171      H1177   1.109       .  S
C1174      H1179   1.110       .  S
C1174      H1180   1.111       .  S
C1181      C1182   1.408       .  A
C1181      C1186   1.411       .  A
C1181      H1188   1.084       .  S
C1183      C1190   1.506       .  S
C1184      C1185   1.401       .  A
C1185      C1186   1.416       .  A
C1186      C1187   1.507       .  S
C1187      H1191   1.111       .  S
C1187      H1192   1.111       .  S
C1187      H1193   1.109       .  S
C1190      H1194   1.104       .  S
C1190      H1195   1.105       .  S
C1190      H1196   1.111       .  S
C1197      C1198   1.408       .  A
C1197      C1202   1.410       .  A
C1197      H1204   1.084       .  S
C1198      C1199   1.420       .  A
C1199      C1200   1.404       .  A
C1199      C1206   1.510       .  S
C1200      H1205   1.084       .  S
C1203      H1209   1.110   1_554  S
C1206      H1210   1.110   1_565  S
C1206      H1211   1.109       .  S
C1206      H1212   1.111   1_565  S
C1213      C1214   1.402       .  A
C1213      C1218   1.403       .  A
C1213      H1220   1.084       .  S
C1214      C1215   1.417       .  A
C1215      C1216   1.412       .  A
C1215      C1222   1.507       .  S
C1216      C1217   1.408       .  A
C1216      H1221   1.084       .  S
C1217      C1218   1.422       .  A
C1218      C1219   1.511       .  S
C1219      H1223   1.111       .  S
C1219      H1224   1.106       .  S
C1219      H1225   1.109       .  S
C1222      H1226   1.108       .  S
C1222      H1227   1.111       .  S
C1222      H1228   1.111       .  S
C1229      C1230   1.405       .  A
C1229      C1234   1.407       .  A
C1229      H1236   1.084       .  S
C1230      C1231   1.418       .  A
C1231      C1232   1.410       .  A
C1231      C1238   1.504       .  S
C1232      C1233   1.404       .  A
C1232      H1237   1.084       .  S
C1233      C1234   1.415       .  A
C1234      C1235   1.508       .  S
C1235      H1239   1.111       .  S
C1235      H1240   1.109       .  S
C1235      H1241   1.110       .  S
C1238      H1242   1.106       .  S
C1238      H1243   1.110       .  S
C1238      H1244   1.111       .  S
C1245      C1246   1.408       .  A
C1245      C1250   1.411       .  A
C1245      H1252   1.084       .  S
C1246      C1247   1.417       .  A
C1247      C1248   1.400       .  A
C1247      C1254   1.510       .  S
C1248      C1249   1.406       .  A
C1248      H1253   1.085       .  S
C1249      C1250   1.417       .  A
C1250      C1251   1.506       .  S
C1251      H1255   1.110       .  S
C1251      H1256   1.110       .  S
C1251      H1257   1.111       .  S
C1254      H1258   1.111       .  S
C1254      H1259   1.109       .  S
C1254      H1260   1.111       .  S
C1261      C1262   1.405       .  A
C1261      C1266   1.408       .  A
C1261      H1268   1.084       .  S
C1262      C1263   1.417       .  A
C1263      C1264   1.406       .  A
C1263      C1270   1.508       .  S
C1264      C1265   1.403       .  A
C1264      H1269   1.085       .  S
C1265      C1266   1.414       .  A
C1266      C1267   1.506       .  S
C1267      H1271   1.111       .  S
C1267      H1272   1.110       .  S
C1267      H1273   1.110       .  S
C1270      H1274   1.111       .  S
C1270      H1275   1.110       .  S
C1270      H1276   1.111       .  S
C1277      C1282   1.410       .  A
C1277      H1284   1.084       .  S
C1279      C1280   1.405       .  A
C1279      C1286   1.509       .  S
C1280      C1281   1.405       .  A
C1280      H1285   1.084       .  S
C1281      C1282   1.419       .  A
C1282      C1283   1.508       .  S
C1283      H1287   1.111       .  S
C1283      H1288   1.110       .  S
C1283      H1289   1.109       .  S
C1286      H1292   1.111       .  S
C1293      N1294   1.361       .  A
C1293      N1298   1.356       .  A
C1293      C1588   1.484       .  S
N1294      C1295   1.364       .  A
C1295      N1296   1.364       .  A
C1295      C1604   1.495       .  S
N1296      C1297   1.359       .  A
C1297      N1298   1.356       .  A
C1297      C1569   1.490       .  S
C1299      N1300   1.362       .  A
C1299      N1304   1.357       .  A
C1299      C1556   1.488       .  S
N1300      C1301   1.366       .  A
C1301      N1302   1.363       .  A
C1301      C1601   1.496       .  S
N1302      C1303   1.359       .  A
C1303      N1304   1.359       .  A
C1303      C1537   1.492       .  S
C1305      N1306   1.359       .  A
C1305      N1310   1.361       .  A
C1305      C1489   1.481       .  S
N1306      C1307   1.360       .  A
C1307      N1308   1.357       .  A
C1307      C1508   1.487       .  S
N1308      C1309   1.361       .  A
C1309      N1310   1.364       .  A
C1309      C1521   1.495       .  S
C1311      N1312   1.356       .  A
C1311      N1316   1.361       .  A
C1311      C1460   1.482       .  S
N1312      C1313   1.360       .  A
C1313      N1314   1.357       .  A
C1313      C1476   1.495       .  S
N1314      C1315   1.364       .  A
C1315      N1316   1.364       .  A
C1315      C1524   1.494       .  S
C1317      N1318   1.357       .  A
C1317      N1322   1.360       .  A
C1317      C1425   1.484       .  S
N1318      C1319   1.358       .  A
C1319      N1320   1.362       .  A
C1319      C1409   1.492   1_455  S
N1320      C1321   1.367       .  A
C1321      N1322   1.363       .  A
C1321      C1444   1.493       .  S
C1323      N1324   1.359       .  A
C1323      N1328   1.367       .  A
C1323      C1393   1.494       .  S
N1324      C1325   1.358       .  A
C1325      N1326   1.354       .  A
C1325      C1377   1.484   1_455  S
N1326      C1327   1.359       .  A
C1327      N1328   1.368       .  A
C1327      C1441   1.493       .  S
O1329     Mn1355   2.113   1_565  S
O1329      C2002   1.276       .  A
C1330      C1553   1.493       .  S
C1330      O1363   1.274       .  A
C1330      O1360   1.274       .  A
O1331     Mn1338   2.177       .  S
O1331     Mn1349   2.141       .  S
O1331     Mn1353   2.171       .  S
O1331     Mn2001   2.115       .  S
O1332     Mn1366   2.090       .  S
O1332      C1342   1.269       .  A
O1333     Mn1349   2.094       .  S
O1333      C1356   1.270       .  A
O1334     Mn1353   2.118       .  S
O1334      C1361   1.256       .  A
O1335     Mn1355   1.982       .  S
O1335      C1351   1.220       .  S
C1336      C1505   1.493       .  S
C1336      O1339   1.256       .  A
C1336      O1362   1.219       .  S
O1337     Mn1338   2.179       .  S
O1337     Mn1371   2.113       .  S
O1337     Mn1353   2.177       .  S
Mn1338     O1343   2.124       .  S
Mn1338     O2016   2.126       .  S
O1340     Mn1347   2.108       .  S
O1340      C1342   1.274       .  A
C1341      C1473   1.496       .  S
C1341      O1367   1.258       .  A
C1341      O1354   1.214       .  S
C1342      C1585   1.487       .  S
O1343      C1368   1.257       .  A
O1344     Mn1347   2.112       .  S
O1344     Mn1366   2.144       .  S
O1345     Mn1349   1.951       .  S
O1345     Mn1371   1.972       .  S
O1345      C1368   1.216       .  S
C1346      C1428   1.489       .  S
C1346      O1348   1.275   1_455  A
Mn1347     O1360   2.111       .  S
Mn1347     O2008   1.981   1_545  S
Mn1347     O2000   1.966   1_545  S
O1348     Mn1371   2.113       .  S
Mn1349     O1365   2.095       .  S
Mn1349     O1359   1.950       .  S
O1350     Mn1355   2.108   1_565  S
O1350      C1998   1.273       .  A
C1351      C1412   1.501       .  S
C1351      O1369   1.258       .  A
C1352      C1457   1.494       .  S
C1352      O1996   1.273       .  A
C1352      O1365   1.270       .  A
Mn1353     O2015   2.125       .  S
O1354     Mn1993   1.966       .  S
O1354     Mn1357   1.943       .  S
Mn1355     O1977   2.115   1_545  S
Mn1355     O1373   1.974       .  S
C1356      C1492   1.502       .  S
C1356      O1975   1.276       .  A
Mn1357     O1364   2.104       .  S
Mn1357     O1372   2.095       .  S
Mn1357     O1362   1.963       .  S
C1358      C1396   1.494       .  S
C1358      O1374   1.275   1_455  A
O1359     Mn1371   1.972       .  S
O1359      C1361   1.219       .  S
C1361      C1572   1.491       .  S
O1362     Mn1993   1.980       .  S
O1363     Mn1366   2.105       .  S
C1368      C1540   1.496       .  S
O1369     Mn1999   2.125   1_545  S
O1370     Mn1984   2.126   1_545  S
O1370      C1375   1.258       .  A
Mn1371     O1374   2.120       .  S
O1373      C1375   1.217       .  S
C1375      C1380   1.493       .  S
C1376      C1377   1.398       .  A
C1376      C1381   1.401       .  A
C1376      H1383   1.084       .  S
C1378      C1379   1.411       .  A
C1378      C1385   1.506       .  S
C1379      H1384   1.084       .  S
C1380      C1381   1.422       .  A
C1381      C1382   1.507       .  S
C1382      H1386   1.111       .  S
C1382      H1387   1.103       .  S
C1382      H1388   1.103       .  S
C1385      H1389   1.109       .  S
C1385      H1390   1.111       .  S
C1385      H1391   1.111       .  S
C1392      C1393   1.405   1_655  A
C1392      C1397   1.412       .  A
C1392      H1399   1.084       .  S
C1394      C1395   1.409       .  A
C1394      C1401   1.509       .  S
C1395      H1400   1.084       .  S
C1396      C1397   1.416   1_455  A
C1397      C1398   1.503       .  S
C1398      H1402   1.111       .  S
C1398      H1403   1.105       .  S
C1398      H1404   1.110       .  S
C1401      H1405   1.109       .  S
C1401      H1406   1.111       .  S
C1401      H1407   1.111       .  S
C1408      C1413   1.403       .  A
C1408      H1415   1.084       .  S
C1409      C1410   1.416   1_655  A
C1410      C1411   1.415       .  A
C1410      C1417   1.506       .  S
C1411      C1412   1.411   1_455  A
C1411      H1416   1.083       .  S
C1413      C1414   1.505       .  S
C1414      H1418   1.111       .  S
C1414      H1419   1.105       .  S
C1414      H1420   1.103       .  S
C1417      H1421   1.111       .  S
C1417      H1422   1.109       .  S
C1417      H1423   1.111       .  S
C1424      C1425   1.404   1_655  A
C1424      C1429   1.409       .  A
C1424      H1431   1.084       .  S
C1426      C1427   1.406       .  A
C1426      C1433   1.508       .  S
C1427      H1432   1.084       .  S
C1428      C1429   1.416   1_455  A
C1429      C1430   1.503       .  S
C1430      H1434   1.111       .  S
C1430      H1435   1.110       .  S
C1430      H1436   1.105       .  S
C1433      H1437   1.110       .  S
C1433      H1438   1.109       .  S
C1433      H1439   1.111       .  S
C1440      C1445   1.411       .  A
C1440      H1770   1.084       .  S
C1441      C1765   1.420   1_455  A
C1442      C1764   1.420   1_654  A
C1442      C1443   1.406       .  A
C1442      C1449   1.509       .  S
C1443      C1444   1.403   1_655  A
C1443      H1448   1.084       .  S
C1445      C1446   1.508       .  S
C1446      H1450   1.111       .  S
C1446      H1451   1.111       .  S
C1446      H1452   1.109       .  S
H1447      C1763   1.084       .  S
C1449      H1776   1.109   1_554  S
C1449      H1777   1.111   1_554  S
C1449      H1455   1.111       .  S
H1453      C1772   1.109       .  S
H1454      C1772   1.111       .  S
C1456      C1457   1.406       .  A
C1456      C1461   1.407       .  A
C1456      H1463   1.084       .  S
C1457      C1458   1.420       .  A
C1458      C1459   1.407       .  A
C1458      C1465   1.507       .  S
C1459      C1460   1.402       .  A
C1459      H1464   1.085       .  S
C1460      C1461   1.416       .  A
C1461      C1462   1.507       .  S
C1462      H1466   1.110       .  S
C1462      H2113   1.107       .  S
C1462      H1468   1.111       .  S
C1465      H2115   1.110       .  S
C1465      H1470   1.109       .  S
C1465      H1471   1.111       .  S
H1467      C2108   1.106       .  S
H1469      C2111   1.110       .  S
C1472      C1473   1.407       .  A
C1472      C1477   1.414       .  A
C1472      H1479   1.083       .  S
C1473      C1474   1.423       .  A
C1474      C1475   1.398       .  A
C1474      C1481   1.509       .  S
C1475      C1476   1.401       .  A
C1475      H1480   1.084       .  S
C1476      C1477   1.421       .  A
C1477      C1478   1.506       .  S
C1478      H1482   1.111       .  S
C1478      H2129   1.110       .  S
C1478      H1484   1.111       .  S
C1481      H2131   1.108       .  S
C1481      H1486   1.109       .  S
C1481      H1487   1.111       .  S
H1483      C2124   1.110       .  S
H1485      C2127   1.108       .  S
C1488      C1489   1.400       .  A
C1488      C1493   1.409       .  A
C1488      H1495   1.085       .  S
C1489      C1490   1.410       .  A
C1490      C1491   1.407       .  A
C1490      C1497   1.506       .  S
C1491      C1492   1.409       .  A
C1491      H1496   1.082       .  S
C1492      C1493   1.426       .  A
C1493      C1494   1.508       .  S
C1494      H1498   1.111       .  S
C1494      H1499   1.108       .  S
C1494      H1500   1.110       .  S
C1497      H2147   1.110       .  S
C1497      H1502   1.110       .  S
C1497      H1503   1.111       .  S
H1501      C2143   1.110       .  S
C1504      C1505   1.408       .  A
C1504      C1509   1.411       .  A
C1504      H1511   1.084       .  S
C1505      C2152   1.420       .  A
C1506      C2151   1.420   1_545  A
C1506      C2153   1.403   1_545  A
C1506      C1513   1.506       .  S
C1507      C2152   1.403       .  A
C1507      C1508   1.401       .  A
C1507      H2158   1.084       .  S
C1508      C1509   1.416       .  A
C1509      C1510   1.507       .  S
C1510      H1514   1.111       .  S
C1510      H1515   1.111       .  S
C1510      H1516   1.109       .  S
H1512      C2153   1.084   1_545  S
C1513      H1517   1.104       .  S
C1513      H1518   1.105       .  S
C1513      H1519   1.111       .  S
C1520      C1521   1.407       .  A
C1520      C1525   1.410       .  A
C1520      H1527   1.084       .  S
C1521      C1522   1.420       .  A
C1522      C1523   1.404       .  A
C1522      C1529   1.509       .  S
C1523      C1847   1.405   1_554  A
C1523      H1528   1.084       .  S
C1524      C1846   1.405       .  A
C1524      C1848   1.419       .  A
C1525      C1847   1.419   1_554  A
C1525      C1849   1.508       .  S
C1526      C1848   1.508       .  S
C1526      H1853   1.111       .  S
C1526      H2177   1.109       .  S
C1526      H1532   1.110       .  S
C1529      H1533   1.110       .  S
C1529      H1534   1.109       .  S
C1529      H1535   1.111       .  S
H1530      C1849   1.111       .  S
H1531      C2172   1.109       .  S
C1536      C1537   1.402       .  A
C1536      C1541   1.403       .  A
C1536      H1543   1.084       .  S
C1537      C1538   1.417       .  A
C1538      C1539   1.412       .  A
C1538      C1545   1.507       .  S
C1539      C1540   1.408       .  A
C1539      H1544   1.084       .  S
C1540      C1541   1.422       .  A
C1541      C1542   1.511       .  S
C1542      H1546   1.111       .  S
C1542      H1547   1.106       .  S
C1542      H1548   1.109       .  S
C1545      H1549   1.108       .  S
C1545      H1550   1.111       .  S
C1545      H1551   1.111       .  S
C1552      C1553   1.405       .  A
C1552      C1557   1.407       .  A
C1552      H1559   1.084       .  S
C1553      C1554   1.417       .  A
C1554      C1555   1.410       .  A
C1554      C1561   1.504       .  S
C1555      C1556   1.404       .  A
C1555      H1560   1.084       .  S
C1556      C1557   1.415       .  A
C1557      C1558   1.508       .  S
C1558      H1562   1.111       .  S
C1558      H1563   1.109       .  S
C1558      H1564   1.110       .  S
C1561      H1565   1.106       .  S
C1561      H1566   1.110       .  S
C1561      H1567   1.111       .  S
C1568      C1569   1.408       .  A
C1568      C1573   1.411       .  A
C1568      H1575   1.084       .  S
C1569      C1570   1.417       .  A
C1570      C1571   1.400       .  A
C1570      C1577   1.510       .  S
C1571      C1572   1.406       .  A
C1571      H1576   1.085       .  S
C1572      C1573   1.417       .  A
C1573      C1574   1.506       .  S
C1574      H1578   1.110       .  S
C1574      H1579   1.110       .  S
C1574      H1580   1.111       .  S
C1577      H1581   1.111       .  S
C1577      H1582   1.109       .  S
C1577      H1583   1.111       .  S
C1584      C1585   1.405       .  A
C1584      C1589   1.408       .  A
C1584      H1591   1.084       .  S
C1585      C1586   1.417       .  A
C1586      C1587   1.406       .  A
C1586      C1593   1.508       .  S
C1587      C1588   1.403       .  A
C1587      H1592   1.085       .  S
C1588      C1589   1.414       .  A
C1589      C1590   1.506       .  S
C1590      H1594   1.111       .  S
C1590      H1595   1.110       .  S
C1590      H1596   1.110       .  S
C1593      H1597   1.110       .  S
C1593      H1598   1.110       .  S
C1593      H1599   1.111       .  S
C1600      C1924   1.407   1_554  A
C1600      C1605   1.410       .  A
C1600      H1607   1.084       .  S
C1601      C1923   1.407       .  A
C1601      C1925   1.419       .  A
C1602      C1924   1.419   1_554  A
C1602      C1603   1.405       .  A
C1602      C1609   1.509       .  S
C1603      C1604   1.405       .  A
C1603      H1608   1.084       .  S
C1604      C1605   1.419       .  A
C1605      C1606   1.508       .  S
C1606      H1610   1.111       .  S
C1606      H1611   1.110       .  S
C1606      H1612   1.109       .  S
C1609      H1936   1.108   1_554  S
C1609      H1937   1.110   1_554  S
C1609      H1615   1.111       .  S
H1613      C1932   1.108       .  S
H1614      C1932   1.110       .  S
C1616      N1617   1.361       .  A
C1616      N1621   1.356       .  A
C1616      C1911   1.484       .  S
N1617      C1618   1.364       .  A
C1618      N1619   1.364       .  A
C1618      C1927   1.495       .  S
N1619      C1620   1.359       .  A
C1620      N1621   1.356       .  A
C1620      C1892   1.491       .  S
C1622      N1623   1.362       .  A
C1622      N1627   1.357       .  A
C1622      C1879   1.488       .  S
N1623      C1624   1.366       .  A
C1624      N1625   1.363       .  A
C1624      C1924   1.496       .  S
N1625      C1626   1.359       .  A
C1626      N1627   1.359       .  A
C1626      C1860   1.492       .  S
C1628      N1629   1.359       .  A
C1628      N1633   1.361       .  A
C1628      C1812   1.481       .  S
N1629      C1630   1.360       .  A
C1630      N1631   1.357       .  A
C1630      C1831   1.488       .  S
N1631      C1632   1.361       .  A
C1632      N1633   1.364       .  A
C1632      C1844   1.495       .  S
C1634      N1635   1.356       .  A
C1634      N1639   1.360       .  A
C1634      C1783   1.482       .  S
N1635      C1636   1.360       .  A
C1636      N1637   1.357       .  A
C1636      C1799   1.495       .  S
N1637      C1638   1.364       .  A
C1638      N1639   1.363       .  A
C1638      C1847   1.494       .  S
C1640      N1641   1.357       .  A
C1640      N1645   1.359       .  A
C1640      C1748   1.484       .  S
N1641      C1642   1.358       .  A
C1642      N1643   1.362       .  A
C1642      C1732   1.492   1_455  S
N1643      C1644   1.367       .  A
C1644      N1645   1.363       .  A
C1644      C1767   1.493       .  S
C1646      N1647   1.359       .  A
C1646      N1651   1.367       .  A
C1646      C1716   1.494       .  S
N1647      C1648   1.358       .  A
C1648      N1649   1.354       .  A
C1648      C1700   1.484   1_455  S
N1649      C1650   1.359       .  A
C1650      N1651   1.369       .  A
C1650      C1764   1.494       .  S
O1652     Mn1678   2.114   1_565  S
O1652      C2325   1.276       .  A
C1653      C1876   1.493       .  S
C1653      O1686   1.274       .  A
C1653      O1683   1.274       .  A
O1654     Mn1661   2.177       .  S
O1654     Mn1672   2.141       .  S
O1654     Mn1676   2.171       .  S
O1654     Mn2324   2.115       .  S
O1655     Mn1689   2.091       .  S
O1655      C1665   1.270       .  A
O1656     Mn1672   2.093       .  S
O1656      C1679   1.270       .  A
O1657     Mn1676   2.118       .  S
O1657      C1684   1.256       .  A
O1658     Mn1678   1.981       .  S
O1658      C1674   1.220       .  S
C1659      C1828   1.493       .  S
C1659      O1662   1.256       .  A
C1659      O1685   1.219       .  S
O1660     Mn1661   2.179       .  S
O1660     Mn1694   2.113       .  S
O1660     Mn1676   2.177       .  S
Mn1661     O1666   2.124       .  S
Mn1661     O2339   2.125       .  S
O1663     Mn1670   2.108       .  S
O1663      C1665   1.274       .  A
C1664      C1796   1.496       .  S
C1664      O1690   1.258       .  A
C1664      O1677   1.214       .  S
C1665      C1908   1.487       .  S
O1666      C1691   1.257       .  A
O1667     Mn1670   2.112       .  S
O1667     Mn1689   2.144       .  S
O1668     Mn1672   1.951       .  S
O1668     Mn1694   1.972       .  S
O1668      C1691   1.216       .  S
C1669      C1751   1.489       .  S
C1669      O1671   1.275   1_455  A
Mn1670     O1683   2.111       .  S
Mn1670     O2331   1.981   1_545  S
Mn1670     O2323   1.966   1_545  S
O1671     Mn1694   2.113       .  S
Mn1672     O1688   2.095       .  S
Mn1672     O1682   1.950       .  S
O1673     Mn1678   2.107   1_565  S
O1673      C2321   1.273       .  A
C1674      C1735   1.501       .  S
C1674      O1692   1.258       .  A
C1675      C1780   1.494       .  S
C1675      O2319   1.274       .  A
C1675      O1688   1.270       .  A
Mn1676     O2338   2.125       .  S
O1677     Mn2316   1.965       .  S
O1677     Mn1680   1.943       .  S
Mn1678     O2300   2.115   1_545  S
Mn1678     O1696   1.974       .  S
C1679      C1815   1.502       .  S
C1679      O2298   1.276       .  A
Mn1680     O1687   2.104       .  S
Mn1680     O1695   2.095       .  S
Mn1680     O1685   1.963       .  S
C1681      C1719   1.494       .  S
C1681      O1697   1.275   1_455  A
O1682     Mn1694   1.972       .  S
O1682      C1684   1.219       .  S
C1684      C1895   1.492       .  S
O1685     Mn2316   1.980       .  S
O1686     Mn1689   2.105       .  S
C1691      C1863   1.496       .  S
O1692     Mn2322   2.125   1_545  S
O1693     Mn2307   2.125   1_545  S
O1693      C1698   1.258       .  A
Mn1694     O1697   2.119       .  S
O1696      C1698   1.218       .  S
C1698      C1703   1.492       .  S
C1699      C1700   1.399       .  A
C1699      C1704   1.402       .  A
C1699      H1706   1.084       .  S
C1701      C1702   1.411       .  A
C1701      C1708   1.506       .  S
C1702      H1707   1.084       .  S
C1703      C1704   1.422       .  A
C1704      C1705   1.507       .  S
C1705      H1709   1.111       .  S
C1705      H1710   1.104       .  S
C1705      H1711   1.103       .  S
C1708      H1712   1.109       .  S
C1708      H1713   1.111       .  S
C1708      H1714   1.111       .  S
C1715      C1716   1.405   1_655  A
C1715      C1720   1.412       .  A
C1715      H1722   1.084       .  S
C1717      C1718   1.409       .  A
C1717      C1724   1.509       .  S
C1718      H1723   1.084       .  S
C1719      C1720   1.416   1_455  A
C1720      C1721   1.503       .  S
C1721      H1725   1.111       .  S
C1721      H1726   1.105       .  S
C1721      H1727   1.110       .  S
C1724      H1728   1.109       .  S
C1724      H1729   1.111       .  S
C1724      H1730   1.111       .  S
C1731      C1736   1.403       .  A
C1731      H1738   1.084       .  S
C1732      C1733   1.416   1_655  A
C1733      C1734   1.415       .  A
C1733      C1740   1.506       .  S
C1734      C1735   1.411   1_455  A
C1734      H1739   1.083       .  S
C1736      C1737   1.506       .  S
C1737      H1741   1.111       .  S
C1737      H1742   1.106       .  S
C1737      H1743   1.104       .  S
C1740      H1744   1.111       .  S
C1740      H1745   1.109       .  S
C1740      H1746   1.111       .  S
C1747      C1748   1.403   1_655  A
C1747      C1752   1.408       .  A
C1747      H1754   1.084       .  S
C1749      C1750   1.406       .  A
C1749      C1756   1.508       .  S
C1750      H1755   1.084       .  S
C1751      C1752   1.416   1_455  A
C1752      C1753   1.502       .  S
C1753      H1757   1.111       .  S
C1753      H1758   1.110       .  S
C1753      H1759   1.105       .  S
C1756      H1760   1.110       .  S
C1756      H1761   1.109       .  S
C1756      H1762   1.111       .  S
C1763      C1768   1.411       .  A
C1765      C1766   1.406       .  A
C1765      C1772   1.509       .  S
C1766      C1767   1.403   1_655  A
C1766      H1771   1.084       .  S
C1768      C1769   1.508       .  S
C1769      H1773   1.111       .  S
C1769      H1774   1.111       .  S
C1769      H1775   1.109       .  S
C1772      H1778   1.111       .  S
C1779      C1780   1.406       .  A
C1779      C1784   1.407       .  A
C1779      H1786   1.084       .  S
C1780      C1781   1.420       .  A
C1781      C1782   1.407       .  A
C1781      C1788   1.507       .  S
C1782      C1783   1.402       .  A
C1782      H1787   1.085       .  S
C1783      C1784   1.415       .  A
C1784      C1785   1.507       .  S
C1785      H1789   1.110       .  S
C1785      H2436   1.107       .  S
C1785      H1791   1.111       .  S
C1788      H2438   1.110       .  S
C1788      H1793   1.109       .  S
C1788      H1794   1.111       .  S
H1790      C2431   1.106       .  S
H1792      C2434   1.110       .  S
C1795      C1796   1.407       .  A
C1795      C1800   1.414       .  A
C1795      H1802   1.083       .  S
C1796      C1797   1.423       .  A
C1797      C1798   1.398       .  A
C1797      C1804   1.509       .  S
C1798      C1799   1.401       .  A
C1798      H1803   1.084       .  S
C1799      C1800   1.421       .  A
C1800      C1801   1.506       .  S
C1801      H1805   1.111       .  S
C1801      H2452   1.110       .  S
C1801      H1807   1.111       .  S
C1804      H2454   1.108       .  S
C1804      H1809   1.109       .  S
C1804      H1810   1.111       .  S
H1806      C2447   1.110       .  S
H1808      C2450   1.108       .  S
C1811      C1812   1.400       .  A
C1811      C1816   1.409       .  A
C1811      H1818   1.084       .  S
C1812      C1813   1.410       .  A
C1813      C1814   1.407       .  A
C1813      C1820   1.506       .  S
C1814      C1815   1.409       .  A
C1814      H1819   1.082       .  S
C1815      C1816   1.426       .  A
C1816      C1817   1.508       .  S
C1817      H1821   1.111       .  S
C1817      H1822   1.108       .  S
C1817      H1823   1.110       .  S
C1820      H2470   1.110       .  S
C1820      H1825   1.110       .  S
C1820      H1826   1.111       .  S
H1824      C2466   1.110       .  S
C1827      C1828   1.408       .  A
C1827      C1832   1.411       .  A
C1827      H1834   1.084       .  S
C1828      C2475   1.420       .  A
C1829      C2474   1.419   1_545  A
C1829      C2476   1.403   1_545  A
C1829      C1836   1.506       .  S
C1830      C2475   1.404       .  A
C1830      C1831   1.401       .  A
C1830      H2481   1.084       .  S
C1831      C1832   1.416       .  A
C1832      C1833   1.507       .  S
C1833      H1837   1.111       .  S
C1833      H1838   1.111       .  S
C1833      H1839   1.109       .  S
H1835      C2476   1.084   1_545  S
C1836      H1840   1.104       .  S
C1836      H1841   1.105       .  S
C1836      H1842   1.111       .  S
C1843      C1844   1.407       .  A
C1843      C1848   1.410       .  A
C1843      H1850   1.084       .  S
C1844      C1845   1.420       .  A
C1845      C1846   1.404       .  A
C1845      C1852   1.509       .  S
C1846      H1851   1.084       .  S
C1849      H2500   1.109   1_554  S
C1849      H1855   1.110   1_554  S
C1852      H1856   1.110       .  S
C1852      H1857   1.109       .  S
C1852      H1858   1.111       .  S
H1854      C2495   1.109   1_556  S
C1859      C1860   1.402       .  A
C1859      C1864   1.403       .  A
C1859      H1866   1.084       .  S
C1860      C1861   1.417       .  A
C1861      C1862   1.412       .  A
C1861      C1868   1.507       .  S
C1862      C1863   1.408       .  A
C1862      H1867   1.084       .  S
C1863      C1864   1.422       .  A
C1864      C1865   1.511       .  S
C1865      H1869   1.111       .  S
C1865      H1870   1.106       .  S
C1865      H1871   1.109       .  S
C1868      H1872   1.108       .  S
C1868      H1873   1.111       .  S
C1868      H1874   1.111       .  S
C1875      C1876   1.405       .  A
C1875      C1880   1.407       .  A
C1875      H1882   1.084       .  S
C1876      C1877   1.418       .  A
C1877      C1878   1.410       .  A
C1877      C1884   1.504       .  S
C1878      C1879   1.404       .  A
C1878      H1883   1.084       .  S
C1879      C1880   1.415       .  A
C1880      C1881   1.508       .  S
C1881      H1885   1.111       .  S
C1881      H1886   1.109       .  S
C1881      H1887   1.110       .  S
C1884      H1888   1.106       .  S
C1884      H1889   1.110       .  S
C1884      H1890   1.111       .  S
C1891      C1892   1.408       .  A
C1891      C1896   1.411       .  A
C1891      H1898   1.084       .  S
C1892      C1893   1.417       .  A
C1893      C1894   1.400       .  A
C1893      C1900   1.510       .  S
C1894      C1895   1.406       .  A
C1894      H1899   1.085       .  S
C1895      C1896   1.417       .  A
C1896      C1897   1.506       .  S
C1897      H1901   1.110       .  S
C1897      H1902   1.110       .  S
C1897      H1903   1.111       .  S
C1900      H1904   1.111       .  S
C1900      H1905   1.109       .  S
C1900      H1906   1.111       .  S
C1907      C1908   1.405       .  A
C1907      C1912   1.408       .  A
C1907      H1914   1.084       .  S
C1908      C1909   1.417       .  A
C1909      C1910   1.406       .  A
C1909      C1916   1.508       .  S
C1910      C1911   1.403       .  A
C1910      H1915   1.085       .  S
C1911      C1912   1.414       .  A
C1912      C1913   1.506       .  S
C1913      H1917   1.111       .  S
C1913      H1918   1.110       .  S
C1913      H1919   1.110       .  S
C1916      H1920   1.111       .  S
C1916      H1921   1.110       .  S
C1916      H1922   1.111       .  S
C1923      C1928   1.410       .  A
C1923      H1930   1.084       .  S
C1925      C1926   1.405       .  A
C1925      C1932   1.509       .  S
C1926      C1927   1.405       .  A
C1926      H1931   1.084       .  S
C1927      C1928   1.419       .  A
C1928      C1929   1.508       .  S
C1929      H1933   1.111       .  S
C1929      H1934   1.111       .  S
C1929      H1935   1.109       .  S
C1932      H1938   1.111       .  S
C1939      N1940   1.361       .  A
C1939      N1944   1.356       .  A
C1939      C2234   1.484       .  S
N1940      C1941   1.364       .  A
C1941      N1942   1.364       .  A
C1941      C2250   1.495       .  S
N1942      C1943   1.359       .  A
C1943      N1944   1.356       .  A
C1943      C2215   1.491       .  S
C1945      N1946   1.362       .  A
C1945      N1950   1.357       .  A
C1945      C2202   1.488       .  S
N1946      C1947   1.366       .  A
C1947      N1948   1.363       .  A
C1947      C2247   1.496       .  S
N1948      C1949   1.359       .  A
C1949      N1950   1.359       .  A
C1949      C2183   1.492       .  S
C1951      N1952   1.358       .  A
C1951      N1956   1.361       .  A
C1951      C2135   1.480       .  S
N1952      C1953   1.360       .  A
C1953      N1954   1.357       .  A
C1953      C2154   1.487       .  S
N1954      C1955   1.361       .  A
C1955      N1956   1.364       .  A
C1955      C2167   1.495       .  S
C1957      N1958   1.356       .  A
C1957      N1962   1.361       .  A
C1957      C2106   1.484       .  S
N1958      C1959   1.360       .  A
C1959      N1960   1.357       .  A
C1959      C2122   1.495       .  S
N1960      C1961   1.364       .  A
C1961      N1962   1.364       .  A
C1961      C2170   1.495       .  S
C1963      N1964   1.357       .  A
C1963      N1968   1.360       .  A
C1963      C2071   1.484       .  S
N1964      C1965   1.358       .  A
C1965      N1966   1.362       .  A
C1965      C2055   1.491   1_455  S
N1966      C1967   1.367       .  A
C1967      N1968   1.363       .  A
C1967      C2090   1.493       .  S
C1969      N1970   1.359       .  A
C1969      N1974   1.367       .  A
C1969      C2039   1.494       .  S
N1970      C1971   1.358       .  A
C1971      N1972   1.354       .  A
C1971      C2023   1.485   1_455  S
N1972      C1973   1.359       .  A
C1973      N1974   1.368       .  A
C1973      C2087   1.493       .  S
O1975     Mn2001   2.114       .  S
C1976      C2199   1.493       .  S
C1976      O2009   1.274       .  A
C1976      O2006   1.274       .  A
O1977     Mn1984   2.177       .  S
O1977     Mn1995   2.140       .  S
O1977     Mn1999   2.171       .  S
O1978     Mn2012   2.091       .  S
O1978      C1988   1.270       .  A
O1979     Mn1995   2.094       .  S
O1979      C2002   1.270       .  A
O1980     Mn1999   2.119       .  S
O1980      C2007   1.255       .  A
O1981     Mn2001   1.983       .  S
O1981      C1997   1.221       .  S
C1982      C2151   1.493       .  S
C1982      O1985   1.256       .  A
C1982      O2008   1.219       .  S
O1983     Mn1984   2.179       .  S
O1983     Mn2017   2.113       .  S
O1983     Mn1999   2.178       .  S
Mn1984     O1989   2.124       .  S
O1986     Mn1993   2.107       .  S
O1986      C1988   1.274       .  A
C1987      C2119   1.497       .  S
C1987      O2013   1.258       .  A
C1987      O2000   1.214       .  S
C1988      C2231   1.487       .  S
O1989      C2014   1.257       .  A
O1990     Mn1993   2.112       .  S
O1990     Mn2012   2.145       .  S
O1991     Mn1995   1.951       .  S
O1991     Mn2017   1.972       .  S
O1991      C2014   1.216       .  S
C1992      C2074   1.489       .  S
C1992      O1994   1.275   1_455  A
Mn1993     O2006   2.111       .  S
O1994     Mn2017   2.114       .  S
Mn1995     O2011   2.094       .  S
Mn1995     O2005   1.950       .  S
O1996     Mn2001   2.108       .  S
C1997      C2058   1.501       .  S
C1997      O2015   1.258       .  A
C1998      C2103   1.492       .  S
C1998      O2011   1.270       .  A
O2000     Mn2003   1.943       .  S
Mn2001     O2019   1.974       .  S
C2002      C2138   1.503       .  S
Mn2003     O2010   2.104       .  S
Mn2003     O2018   2.094       .  S
Mn2003     O2008   1.963       .  S
C2004      C2042   1.495       .  S
C2004      O2020   1.275   1_455  A
O2005     Mn2017   1.972       .  S
O2005      C2007   1.218       .  S
C2007      C2218   1.492       .  S
O2009     Mn2012   2.106       .  S
C2014      C2186   1.496       .  S
O2016      C2021   1.259       .  A
Mn2017     O2020   2.120       .  S
O2019      C2021   1.218       .  S
C2021      C2026   1.493       .  S
C2022      C2023   1.398       .  A
C2022      C2027   1.401       .  A
C2022      H2029   1.084       .  S
C2024      C2025   1.411       .  A
C2024      C2031   1.506       .  S
C2025      H2030   1.084       .  S
C2026      C2027   1.422       .  A
C2027      C2028   1.506       .  S
C2028      H2032   1.111       .  S
C2028      H2033   1.103       .  S
C2028      H2034   1.102       .  S
C2031      H2035   1.109       .  S
C2031      H2036   1.111       .  S
C2031      H2037   1.111       .  S
C2038      C2039   1.405   1_655  A
C2038      C2043   1.412       .  A
C2038      H2045   1.084       .  S
C2040      C2041   1.409       .  A
C2040      C2047   1.509       .  S
C2041      H2046   1.084       .  S
C2042      C2043   1.416   1_455  A
C2043      C2044   1.503       .  S
C2044      H2048   1.111       .  S
C2044      H2049   1.105       .  S
C2044      H2050   1.110       .  S
C2047      H2051   1.109       .  S
C2047      H2052   1.111       .  S
C2047      H2053   1.111       .  S
C2054      C2059   1.403       .  A
C2054      H2061   1.084       .  S
C2055      C2056   1.415   1_655  A
C2056      C2057   1.415       .  A
C2056      C2063   1.506       .  S
C2057      C2058   1.411   1_455  A
C2057      H2062   1.083       .  S
C2059      C2060   1.504       .  S
C2060      H2064   1.111       .  S
C2060      H2065   1.103       .  S
C2060      H2066   1.102       .  S
C2063      H2067   1.111       .  S
C2063      H2068   1.109       .  S
C2063      H2069   1.111       .  S
C2070      C2071   1.403   1_655  A
C2070      C2075   1.409       .  A
C2070      H2077   1.084       .  S
C2072      C2073   1.406       .  A
C2072      C2079   1.508       .  S
C2073      H2078   1.084       .  S
C2074      C2075   1.416   1_455  A
C2075      C2076   1.502       .  S
C2076      H2080   1.111       .  S
C2076      H2081   1.110       .  S
C2076      H2082   1.105       .  S
C2079      H2083   1.110       .  S
C2079      H2084   1.109       .  S
C2079      H2085   1.111       .  S
C2086      C2091   1.411       .  A
C2086      H2416   1.084       .  S
C2087      C2411   1.420   1_455  A
C2088      C2410   1.420   1_654  A
C2088      C2089   1.406       .  A
C2088      C2095   1.509       .  S
C2089      C2090   1.403   1_655  A
C2089      H2094   1.084       .  S
C2091      C2092   1.508       .  S
C2092      H2096   1.111       .  S
C2092      H2097   1.111       .  S
C2092      H2098   1.109       .  S
H2093      C2409   1.084       .  S
C2095      H2422   1.109   1_554  S
C2095      H2423   1.111   1_554  S
C2095      H2101   1.111       .  S
H2099      C2418   1.109       .  S
H2100      C2418   1.111       .  S
C2102      C2103   1.406       .  A
C2102      C2107   1.407       .  A
C2102      H2109   1.084   1_565  S
C2103      C2104   1.419       .  A
C2104      C2105   1.407       .  A
C2104      C2111   1.507       .  S
C2105      C2106   1.403       .  A
C2105      H2110   1.085       .  S
C2106      C2107   1.416       .  A
C2107      C2108   1.507   1_565  S
C2108      H2112   1.110       .  S
C2108      H2114   1.111       .  S
C2111      H2116   1.110       .  S
C2111      H2117   1.111       .  S
C2118      C2119   1.407       .  A
C2118      C2123   1.414       .  A
C2118      H2125   1.083       .  S
C2119      C2120   1.423       .  A
C2120      C2121   1.399       .  A
C2120      C2127   1.509   1_565  S
C2121      C2122   1.401       .  A
C2121      H2126   1.084       .  S
C2122      C2123   1.421       .  A
C2123      C2124   1.506       .  S
C2124      H2128   1.111       .  S
C2124      H2130   1.111       .  S
C2127      H2132   1.109   1_545  S
C2127      H2133   1.111       .  S
C2134      C2135   1.399       .  A
C2134      C2139   1.409       .  A
C2134      H2141   1.084       .  S
C2135      C2136   1.409       .  A
C2136      C2137   1.407       .  A
C2136      C2143   1.506   1_565  S
C2137      C2138   1.410       .  A
C2137      H2142   1.082   1_565  S
C2138      C2139   1.426       .  A
C2139      C2140   1.509       .  S
C2140      H2144   1.111       .  S
C2140      H2145   1.109       .  S
C2140      H2146   1.109       .  S
C2143      H2148   1.110       .  S
C2143      H2149   1.111       .  S
C2150      C2151   1.408       .  A
C2150      C2155   1.411       .  A
C2150      H2157   1.084       .  S
C2152      C2159   1.506       .  S
C2153      C2154   1.401       .  A
C2154      C2155   1.416       .  A
C2155      C2156   1.507       .  S
C2156      H2160   1.111       .  S
C2156      H2161   1.111       .  S
C2156      H2162   1.109       .  S
C2159      H2163   1.104       .  S
C2159      H2164   1.105       .  S
C2159      H2165   1.111       .  S
C2166      C2167   1.408       .  A
C2166      C2171   1.410       .  A
C2166      H2173   1.084       .  S
C2167      C2168   1.420       .  A
C2168      C2169   1.404       .  A
C2168      C2175   1.510       .  S
C2169      C2493   1.405   1_554  A
C2169      H2174   1.084       .  S
C2170      C2492   1.405       .  A
C2170      C2494   1.419       .  A
C2171      C2493   1.419   1_554  A
C2171      C2495   1.508       .  S
C2172      C2494   1.508       .  S
C2172      H2499   1.111       .  S
C2172      H2178   1.110       .  S
C2175      H2179   1.110   1_565  S
C2175      H2180   1.109       .  S
C2175      H2181   1.111   1_565  S
H2176      C2495   1.111       .  S
C2182      C2183   1.402       .  A
C2182      C2187   1.403       .  A
C2182      H2189   1.084       .  S
C2183      C2184   1.417       .  A
C2184      C2185   1.412       .  A
C2184      C2191   1.507       .  S
C2185      C2186   1.408       .  A
C2185      H2190   1.084       .  S
C2186      C2187   1.422       .  A
C2187      C2188   1.511       .  S
C2188      H2192   1.111       .  S
C2188      H2193   1.106       .  S
C2188      H2194   1.109       .  S
C2191      H2195   1.108       .  S
C2191      H2196   1.111       .  S
C2191      H2197   1.111       .  S
C2198      C2199   1.405       .  A
C2198      C2203   1.407       .  A
C2198      H2205   1.084       .  S
C2199      C2200   1.418       .  A
C2200      C2201   1.410       .  A
C2200      C2207   1.504       .  S
C2201      C2202   1.404       .  A
C2201      H2206   1.084       .  S
C2202      C2203   1.415       .  A
C2203      C2204   1.508       .  S
C2204      H2208   1.111       .  S
C2204      H2209   1.109       .  S
C2204      H2210   1.110       .  S
C2207      H2211   1.106       .  S
C2207      H2212   1.110       .  S
C2207      H2213   1.111       .  S
C2214      C2215   1.408       .  A
C2214      C2219   1.411       .  A
C2214      H2221   1.084       .  S
C2215      C2216   1.417       .  A
C2216      C2217   1.400       .  A
C2216      C2223   1.510       .  S
C2217      C2218   1.406       .  A
C2217      H2222   1.085       .  S
C2218      C2219   1.417       .  A
C2219      C2220   1.506       .  S
C2220      H2224   1.110       .  S
C2220      H2225   1.110       .  S
C2220      H2226   1.111       .  S
C2223      H2227   1.111       .  S
C2223      H2228   1.109       .  S
C2223      H2229   1.111       .  S
C2230      C2231   1.405       .  A
C2230      C2235   1.408       .  A
C2230      H2237   1.084       .  S
C2231      C2232   1.417       .  A
C2232      C2233   1.406       .  A
C2232      C2239   1.508       .  S
C2233      C2234   1.403       .  A
C2233      H2238   1.085       .  S
C2234      C2235   1.414       .  A
C2235      C2236   1.506       .  S
C2236      H2240   1.111       .  S
C2236      H2241   1.110       .  S
C2236      H2242   1.110       .  S
C2239      H2243   1.111       .  S
C2239      H2244   1.110       .  S
C2239      H2245   1.111       .  S
C2246      C2570   1.407   1_554  A
C2246      C2251   1.410       .  A
C2246      H2253   1.084       .  S
C2247      C2569   1.407       .  A
C2247      C2571   1.419       .  A
C2248      C2570   1.419   1_554  A
C2248      C2249   1.405       .  A
C2248      C2255   1.509       .  S
C2249      C2250   1.405       .  A
C2249      H2254   1.084       .  S
C2250      C2251   1.419       .  A
C2251      C2252   1.508       .  S
C2252      H2256   1.111       .  S
C2252      H2257   1.110       .  S
C2252      H2258   1.109       .  S
C2255      H2582   1.108   1_554  S
C2255      H2583   1.110   1_554  S
C2255      H2261   1.111       .  S
H2259      C2578   1.108       .  S
H2260      C2578   1.110       .  S
C2262      N2263   1.361       .  A
C2262      N2267   1.356       .  A
C2262      C2557   1.484       .  S
N2263      C2264   1.364       .  A
C2264      N2265   1.364       .  A
C2264      C2573   1.496       .  S
N2265      C2266   1.359       .  A
C2266      N2267   1.356       .  A
C2266      C2538   1.491       .  S
C2268      N2269   1.362       .  A
C2268      N2273   1.357       .  A
C2268      C2525   1.488       .  S
N2269      C2270   1.366       .  A
C2270      N2271   1.363       .  A
C2270      C2570   1.496       .  S
N2271      C2272   1.359       .  A
C2272      N2273   1.359       .  A
C2272      C2506   1.492       .  S
C2274      N2275   1.358       .  A
C2274      N2279   1.361       .  A
C2274      C2458   1.481       .  S
N2275      C2276   1.359       .  A
C2276      N2277   1.357       .  A
C2276      C2477   1.487       .  S
N2277      C2278   1.361       .  A
C2278      N2279   1.364       .  A
C2278      C2490   1.495       .  S
C2280      N2281   1.356       .  A
C2280      N2285   1.361       .  A
C2280      C2429   1.484       .  S
N2281      C2282   1.360       .  A
C2282      N2283   1.357       .  A
C2282      C2445   1.495       .  S
N2283      C2284   1.364       .  A
C2284      N2285   1.364       .  A
C2284      C2493   1.494       .  S
C2286      N2287   1.357       .  A
C2286      N2291   1.359       .  A
C2286      C2394   1.484       .  S
N2287      C2288   1.359       .  A
C2288      N2289   1.362       .  A
C2288      C2378   1.491   1_455  S
N2289      C2290   1.367       .  A
C2290      N2291   1.363       .  A
C2290      C2413   1.492       .  S
C2292      N2293   1.359       .  A
C2292      N2297   1.367       .  A
C2292      C2362   1.494       .  S
N2293      C2294   1.358       .  A
C2294      N2295   1.354       .  A
C2294      C2346   1.485   1_455  S
N2295      C2296   1.359       .  A
C2296      N2297   1.368       .  A
C2296      C2410   1.493       .  S
O2298     Mn2324   2.115       .  S
C2299      C2522   1.493       .  S
C2299      O2332   1.274       .  A
C2299      O2329   1.274       .  A
O2300     Mn2307   2.177       .  S
O2300     Mn2318   2.140       .  S
O2300     Mn2322   2.171       .  S
O2301     Mn2335   2.091       .  S
O2301      C2311   1.270       .  A
O2302     Mn2318   2.094       .  S
O2302      C2325   1.270       .  A
O2303     Mn2322   2.119       .  S
O2303      C2330   1.255       .  A
O2304     Mn2324   1.983       .  S
O2304      C2320   1.221       .  S
C2305      C2474   1.493       .  S
C2305      O2308   1.256       .  A
C2305      O2331   1.219       .  S
O2306     Mn2307   2.179       .  S
O2306     Mn2340   2.113       .  S
O2306     Mn2322   2.178       .  S
Mn2307     O2312   2.124       .  S
O2309     Mn2316   2.107       .  S
O2309      C2311   1.274       .  A
C2310      C2442   1.496       .  S
C2310      O2336   1.258       .  A
C2310      O2323   1.214       .  S
C2311      C2554   1.487       .  S
O2312      C2337   1.257       .  A
O2313     Mn2316   2.112       .  S
O2313     Mn2335   2.145       .  S
O2314     Mn2318   1.951       .  S
O2314     Mn2340   1.972       .  S
O2314      C2337   1.216       .  S
C2315      C2397   1.490       .  S
C2315      O2317   1.275   1_455  A
Mn2316     O2329   2.111       .  S
O2317     Mn2340   2.113       .  S
Mn2318     O2334   2.094       .  S
Mn2318     O2328   1.950       .  S
O2319     Mn2324   2.108       .  S
C2320      C2381   1.501       .  S
C2320      O2338   1.258       .  A
C2321      C2426   1.491       .  S
C2321      O2334   1.270       .  A
O2323     Mn2326   1.943       .  S
Mn2324     O2342   1.975       .  S
C2325      C2461   1.503       .  S
Mn2326     O2333   2.104       .  S
Mn2326     O2341   2.094       .  S
Mn2326     O2331   1.963       .  S
C2327      C2365   1.495       .  S
C2327      O2343   1.275   1_455  A
O2328     Mn2340   1.972       .  S
O2328      C2330   1.218       .  S
C2330      C2541   1.492       .  S
O2332     Mn2335   2.105       .  S
C2337      C2509   1.496       .  S
O2339      C2344   1.258       .  A
Mn2340     O2343   2.119       .  S
O2342      C2344   1.218       .  S
C2344      C2349   1.494       .  S
C2345      C2346   1.398       .  A
C2345      C2350   1.401       .  A
C2345      H2352   1.084       .  S
C2347      C2348   1.411       .  A
C2347      C2354   1.506       .  S
C2348      H2353   1.084       .  S
C2349      C2350   1.422       .  A
C2350      C2351   1.506       .  S
C2351      H2355   1.111       .  S
C2351      H2356   1.103       .  S
C2351      H2357   1.102       .  S
C2354      H2358   1.109       .  S
C2354      H2359   1.111       .  S
C2354      H2360   1.111       .  S
C2361      C2362   1.405   1_655  A
C2361      C2366   1.412       .  A
C2361      H2368   1.084       .  S
C2363      C2364   1.409       .  A
C2363      C2370   1.509       .  S
C2364      H2369   1.084       .  S
C2365      C2366   1.416   1_455  A
C2366      C2367   1.503       .  S
C2367      H2371   1.111       .  S
C2367      H2372   1.105       .  S
C2367      H2373   1.110       .  S
C2370      H2374   1.109       .  S
C2370      H2375   1.111       .  S
C2370      H2376   1.111       .  S
C2377      C2382   1.403       .  A
C2377      H2384   1.084       .  S
C2378      C2379   1.415   1_655  A
C2379      C2380   1.415       .  A
C2379      C2386   1.506       .  S
C2380      C2381   1.411   1_455  A
C2380      H2385   1.083       .  S
C2382      C2383   1.504       .  S
C2383      H2387   1.111       .  S
C2383      H2388   1.104       .  S
C2383      H2389   1.103       .  S
C2386      H2390   1.111       .  S
C2386      H2391   1.109       .  S
C2386      H2392   1.111       .  S
C2393      C2394   1.403   1_655  A
C2393      C2398   1.408       .  A
C2393      H2400   1.084       .  S
C2395      C2396   1.406       .  A
C2395      C2402   1.508       .  S
C2396      H2401   1.084       .  S
C2397      C2398   1.416   1_455  A
C2398      C2399   1.502       .  S
C2399      H2403   1.111       .  S
C2399      H2404   1.110       .  S
C2399      H2405   1.105       .  S
C2402      H2406   1.110       .  S
C2402      H2407   1.109       .  S
C2402      H2408   1.111       .  S
C2409      C2414   1.411       .  A
C2411      C2412   1.406       .  A
C2411      C2418   1.509       .  S
C2412      C2413   1.403   1_655  A
C2412      H2417   1.084       .  S
C2414      C2415   1.508       .  S
C2415      H2419   1.111       .  S
C2415      H2420   1.111       .  S
C2415      H2421   1.109       .  S
C2418      H2424   1.111       .  S
C2425      C2426   1.405       .  A
C2425      C2430   1.407       .  A
C2425      H2432   1.084       .  S
C2426      C2427   1.418       .  A
C2427      C2428   1.407       .  A
C2427      C2434   1.507       .  S
C2428      C2429   1.403       .  A
C2428      H2433   1.085       .  S
C2429      C2430   1.417       .  A
C2430      C2431   1.507   1_565  S
C2431      H2435   1.110       .  S
C2431      H2437   1.111       .  S
C2434      H2439   1.110       .  S
C2434      H2440   1.111       .  S
C2441      C2442   1.407       .  A
C2441      C2446   1.414       .  A
C2441      H2448   1.083       .  S
C2442      C2443   1.423       .  A
C2443      C2444   1.398       .  A
C2443      C2450   1.509   1_565  S
C2444      C2445   1.401       .  A
C2444      H2449   1.084       .  S
C2445      C2446   1.420       .  A
C2446      C2447   1.506       .  S
C2447      H2451   1.111       .  S
C2447      H2453   1.111       .  S
C2450      H2455   1.109   1_545  S
C2450      H2456   1.111       .  S
C2457      C2458   1.399       .  A
C2457      C2462   1.409       .  A
C2457      H2464   1.085       .  S
C2458      C2459   1.409       .  A
C2459      C2460   1.407       .  A
C2459      C2466   1.506   1_565  S
C2460      C2461   1.410       .  A
C2460      H2465   1.083   1_565  S
C2461      C2462   1.427       .  A
C2462      C2463   1.509       .  S
C2463      H2467   1.111       .  S
C2463      H2468   1.109       .  S
C2463      H2469   1.109       .  S
C2466      H2471   1.110       .  S
C2466      H2472   1.111       .  S
C2473      C2474   1.408       .  A
C2473      C2478   1.411       .  A
C2473      H2480   1.084       .  S
C2475      C2482   1.506       .  S
C2476      C2477   1.401       .  A
C2477      C2478   1.416       .  A
C2478      C2479   1.507       .  S
C2479      H2483   1.111       .  S
C2479      H2484   1.111       .  S
C2479      H2485   1.109       .  S
C2482      H2486   1.104       .  S
C2482      H2487   1.105       .  S
C2482      H2488   1.111       .  S
C2489      C2490   1.408       .  A
C2489      C2494   1.410       .  A
C2489      H2496   1.084       .  S
C2490      C2491   1.420       .  A
C2491      C2492   1.404       .  A
C2491      C2498   1.510       .  S
C2492      H2497   1.084       .  S
C2495      H2501   1.110   1_554  S
C2498      H2502   1.110   1_565  S
C2498      H2503   1.109       .  S
C2498      H2504   1.111   1_565  S
C2505      C2506   1.402       .  A
C2505      C2510   1.403       .  A
C2505      H2512   1.084       .  S
C2506      C2507   1.417       .  A
C2507      C2508   1.412       .  A
C2507      C2514   1.507       .  S
C2508      C2509   1.408       .  A
C2508      H2513   1.084       .  S
C2509      C2510   1.422       .  A
C2510      C2511   1.511       .  S
C2511      H2515   1.111       .  S
C2511      H2516   1.106       .  S
C2511      H2517   1.109       .  S
C2514      H2518   1.108       .  S
C2514      H2519   1.111       .  S
C2514      H2520   1.111       .  S
C2521      C2522   1.405       .  A
C2521      C2526   1.407       .  A
C2521      H2528   1.084       .  S
C2522      C2523   1.418       .  A
C2523      C2524   1.410       .  A
C2523      C2530   1.504       .  S
C2524      C2525   1.404       .  A
C2524      H2529   1.084       .  S
C2525      C2526   1.415       .  A
C2526      C2527   1.508       .  S
C2527      H2531   1.111       .  S
C2527      H2532   1.109       .  S
C2527      H2533   1.110       .  S
C2530      H2534   1.106       .  S
C2530      H2535   1.110       .  S
C2530      H2536   1.111       .  S
C2537      C2538   1.408       .  A
C2537      C2542   1.411       .  A
C2537      H2544   1.084       .  S
C2538      C2539   1.417       .  A
C2539      C2540   1.400       .  A
C2539      C2546   1.510       .  S
C2540      C2541   1.406       .  A
C2540      H2545   1.085       .  S
C2541      C2542   1.417       .  A
C2542      C2543   1.506       .  S
C2543      H2547   1.110       .  S
C2543      H2548   1.110       .  S
C2543      H2549   1.111       .  S
C2546      H2550   1.111       .  S
C2546      H2551   1.109       .  S
C2546      H2552   1.111       .  S
C2553      C2554   1.405       .  A
C2553      C2558   1.408       .  A
C2553      H2560   1.084       .  S
C2554      C2555   1.417       .  A
C2555      C2556   1.406       .  A
C2555      C2562   1.508       .  S
C2556      C2557   1.403       .  A
C2556      H2561   1.085       .  S
C2557      C2558   1.414       .  A
C2558      C2559   1.506       .  S
C2559      H2563   1.111       .  S
C2559      H2564   1.110       .  S
C2559      H2565   1.110       .  S
C2562      H2566   1.111       .  S
C2562      H2567   1.110       .  S
C2562      H2568   1.111       .  S
C2569      C2574   1.410       .  A
C2569      H2576   1.084       .  S
C2571      C2572   1.405       .  A
C2571      C2578   1.509       .  S
C2572      C2573   1.405       .  A
C2572      H2577   1.084       .  S
C2573      C2574   1.419       .  A
C2574      C2575   1.508       .  S
C2575      H2579   1.111       .  S
C2575      H2580   1.111       .  S
C2575      H2581   1.109       .  S
C2578      H2584   1.111       .  S
