geometry optimzed in LAMMPS
_audit_creation_date              2020-11-30 
_audit_creation_method            'lammps2cif' 
_symmetry_space_group_name_H-M    'P1' 
_symmetry_Int_Tables_number       1 
_symmetry_cell_setting            triclinic 
loop_ 
_symmetry_equiv_pos_as_xyz 
  x,y,z 
_cell_length_a                    32.67412899 
_cell_length_b                    26.875213428542082 
_cell_length_c                    29.03404850454497 
_cell_angle_alpha                 97.69023646199867 
_cell_angle_beta                  88.65000822136246 
_cell_angle_gamma                 119.15246540936651 
loop_ 
_atom_site_label 
_atom_site_type_symbol 
_atom_site_fract_x 
_atom_site_fract_y 
_atom_site_fract_z 
_atom_site_charge 
N1          N  0.48877480  0.40046535  0.68560522    -0.03000
C2          C  0.49088322  0.38263740  0.72672278    -0.00400
C3          C  0.45212540  0.33080465  0.73156100    -0.23300
C4          C  0.42196595  0.32013908  0.69578265    -0.23500
C5          C  0.44381845  0.36329307  0.66845250    -0.00500
H6          H  0.44224105  0.31103105  0.76310478     0.13200
H7          H  0.38486030  0.29240475  0.69661859     0.13300
N8          N  0.40245192  0.51291429  0.55632435    -0.03000
C9          C  0.42805751  0.51329055  0.51892890    -0.00400
C10         C  0.45686651  0.56923353  0.51070433    -0.23300
C11         C  0.44624715  0.60369616  0.54202255    -0.23500
C12         C  0.41155633  0.56803687  0.56895598    -0.00500
H13         H  0.47657437  0.08335862  0.47937627     0.13200
H14         H  0.45757177  0.14951810  0.54063489     0.13300
N15         N  0.27257037  0.20962197  0.71464829    -0.03000
C16         C  0.24075388  0.18677078  0.74758172    -0.00400
C17         C  0.21070394  0.20949358  0.75118238    -0.23300
C18         C  0.22442539  0.24834266  0.72056032    -0.23500
C19         C  0.26207795  0.24789295  0.69850111    -0.00500
H20         H  0.18435766  0.20244433  0.77666256     0.13200
H21         H  0.21046580  0.27689739  0.71697080     0.13300
O22         O  0.29800935  0.28429824  0.62841990    -0.74000
O23         O  0.36413696  0.41337982  0.56092995    -0.74000
O24         O  0.38895087  0.35078423  0.61002375    -0.74100
O25         O  0.27341812  0.34628924  0.57848235    -0.74100
O26         O  0.28373406  0.40966554  0.64124485    -0.74000
O27         O  0.39830074  0.41117747  0.67461384    -0.74000
O28         O  0.37427159  0.47409969  0.62537153    -0.74000
O29         O  0.30656853  0.34632959  0.69161469    -0.74100
Ni30       Ni  0.33087276  0.34654991  0.59220151     1.25400
Ni31       Ni  0.34106650  0.41226068  0.66062746     1.25400
C32         C  0.29151761  0.29466922  0.67152613     0.88200
C33         C  0.37866235  0.46483223  0.58172040     0.88100
C34         C  0.41141237  0.37942967  0.64853618     0.88200
C35         C  0.26189707  0.38091103  0.60236745     0.88300
N36         N  0.19050969  0.36641542  0.55743975    -0.03000
C37         C  0.19398825  0.38112340  0.51360033    -0.00400
C38         C  0.23781683  0.42573042  0.50759386    -0.23300
C39         C  0.26266573  0.43991075  0.54852674    -0.23500
C40         C  0.23477625  0.40093892  0.57768621    -0.00500
H41         H  0.25144458  0.44387896  0.47590944     0.13200
H42         H  0.30001907  0.46902149  0.55323528     0.13300
N43         N  0.17693528  0.52019447  0.56229411    -0.03000
C44         C  0.16558490  0.52106514  0.51752373    -0.00400
C45         C  0.20195787  0.03157663  0.48897502    -0.23300
C46         C  0.23827774  0.04035505  0.51649982    -0.23500
C47         C  0.22338352  0.03485338  0.56160084    -0.00500
H48         H  0.20257877  0.03545298  0.45228798     0.13200
H49         H  0.27391047  0.05578741  0.50562385     0.13300
N50         N  0.47216182  0.21620842  0.69883151    -0.03000
C51         C  0.48138541  0.18962203  0.73063613    -0.00400
C52         C  0.51902611  0.18163298  0.71937325    -0.23300
C53         C  0.53546739  0.20581643  0.67989292    -0.23500
C54         C  0.50827980  0.22947794  0.66871118    -0.00500
H55         H  0.53514905  0.16445201  0.73991207     0.13200
H56         H  0.56854368  0.21358608  0.66529505     0.13300
O57         O  0.07101394  0.32781345  0.67567787    -0.74000
O58         O  0.15126957  0.47253288  0.62971003    -0.74000
O59         O  0.06867342  0.42653229  0.67866759    -0.74100
O60         O  0.15343513  0.37504735  0.62683121    -0.74100
O61         O  0.11062712  0.34320266  0.56026946    -0.74000
O62         O  0.02163067  0.38628315  0.61475293    -0.74000
O63         O  0.10332055  0.43801191  0.56664606    -0.74000
O64         O  0.02845253  0.29082026  0.60877024    -0.74100
Ni65       Ni  0.11232241  0.40161343  0.65529003     1.25400
Ni66       Ni  0.06450533  0.36349764  0.58527149     1.25400
C67         C  0.03606337  0.28615014  0.65062970     0.88200
C68         C  0.14213543  0.47666155  0.58814792     0.88100
C69         C  0.02855597  0.40826813  0.65772415     0.88200
C70         C  0.14916054  0.35793517  0.58290105     0.88300
O71         O  0.35891412  0.06561698  0.63020734    -0.74000
O72         O  0.30107349  0.14269998  0.70572078    -0.74000
O73         O  0.26992285  0.05469341  0.63313433    -0.74100
O74         O  0.39026514  0.15195814  0.70115107    -0.74100
O75         O  0.41322424  0.21461766  0.65058514    -0.74000
O76         O  0.29191611  0.12224503  0.58685114    -0.74000
O77         O  0.32444598  0.20796636  0.65735976    -0.74000
O78         O  0.37833071  0.12990165  0.58124927    -0.74100
Ni79       Ni  0.32913621  0.10166695  0.66971265     1.25400
Ni80       Ni  0.35242269  0.17106466  0.61768553     1.25400
C81         C  0.38050394  0.08766161  0.59448389     0.88200
C82         C  0.30155576  0.18687545  0.69267408     0.88100
C83         C  0.26177416  0.07280405  0.59756669     0.88200
C84         C  0.42328033  0.19513611  0.68399487     0.88300
O85         O  0.14533333  0.14734089  0.08973296    -0.80400
O86         O  0.97405459  0.99368039  0.20734536    -0.65100
O87         O  0.06534583  0.05808895  0.12090306    -1.11700
C88         C  0.96059970  0.09448350  0.04707822     1.06400
O89         O  0.40716338  0.96470914  0.16681306    -0.78300
O90         O  0.93863538  0.95650291  0.08031591    -0.65900
Ni91       Ni  0.12778694  0.11115827  0.14624392     1.34900
C92         C  0.96931943  0.97058284  0.04981998     0.85200
O93         O  0.05334012  0.99565563  0.19150113    -0.78900
O94         O  0.11988709  0.07791622  0.20339183    -0.89200
C95         C  0.43003922  0.96382601  0.20137093     0.84800
O96         O  0.10746724  0.16302519  0.17784449    -0.67400
O97         O  0.92985343  0.04779066  0.06085456    -0.86600
C98         C  0.07802217  0.14683120  0.21000544     0.85600
C99         C  0.08969385  0.03068660  0.21666272     1.07200
H100        H  0.98848815  0.09186784  0.15898931     0.39000
O101        O  0.98771519  0.06037703  0.13791209    -1.09300
O102        O  0.00315517  0.02142860  0.04963134    -0.66000
Ni103      Ni  0.03361926  0.09066430  0.09298362     1.26300
O104        O  0.04668670  0.09443886  0.20972261    -0.66200
O105        O  0.00172123  0.12339186  0.06563928    -0.78500
C106        C  0.12292617  0.13554724  0.05077106     0.85000
O107        O  0.07900838  0.11646884  0.04751084    -0.65700
Ni108      Ni  0.42369873  0.00836435  0.11446453     1.27400
Ni109      Ni  0.01956237  0.02640263  0.16447878     1.26100
H110        H  0.06608523  0.02757669  0.09980480     0.39500
C111        C  0.95004195  0.11252335  0.00489422    -0.00800
C112        C  0.91611614  0.07141219  0.97145777    -0.08900
C113        C  0.91289556  0.08448424  0.92718205    -0.17700
C114        C  0.44311432  0.13886757  0.91471593     0.04700
C115        C  0.47400373  0.18210304  0.95029716     0.18900
C116        C  0.47782529  0.16790187  0.99431460    -0.19100
C117        C  0.50221330  0.23863119  0.94110617    -0.20400
C118        C  0.50217592  0.25249657  0.89662415    -0.18900
C119        C  0.47542026  0.20967720  0.85989517     0.20300
C120        C  0.44518896  0.15224254  0.86841912     0.02400
C121        C  0.42136278  0.10978856  0.82968108    -0.13700
C122        C  0.42995348  0.12312135  0.78435023    -0.11400
C123        C  0.46066577  0.17934854  0.77632742     0.01900
C124        C  0.48166551  0.22293518  0.81416674    -0.23100
H125        H  0.89360392  0.02788121  0.97860523     0.09900
H126        H  0.88664738  0.05030219  0.90297109     0.13500
H127        H  0.50354280  0.20038425  0.02029642     0.12200
H128        H  0.52518605  0.27210666  0.96826957     0.13400
H129        H  0.52515872  0.29638406  0.89040833     0.12400
H130        H  0.89870701  0.06576224  0.83346691     0.09500
H131        H  0.91487635  0.08898671  0.75561327     0.12800
H132        H  0.50665986  0.26616578  0.80773656     0.14700
C133        C  0.12031799  0.01014119  0.49787229    -0.00800
C134        C  0.12011011  0.05996248  0.48924621    -0.08900
C135        C  0.10433131  0.06217601  0.44580206    -0.17700
C136        C  0.08772135  0.01382948  0.41096886     0.04700
C137        C  0.07709934  0.46035237  0.42460933     0.18900
C138        C  0.09352034  0.45937480  0.46855977    -0.19100
C139        C  0.05528279  0.40989736  0.39256856    -0.20400
C140        C  0.04873068  0.41271218  0.34585952    -0.18900
C141        C  0.06602752  0.96694674  0.33009406     0.20300
C142        C  0.08667586  0.01800700  0.36285025     0.02400
C143        C  0.11071785  0.07133975  0.34603984    -0.13700
C144        C  0.11415793  0.07399465  0.29860100    -0.11400
C145        C  0.09178960  0.02403965  0.26607877     0.01900
C146        C  0.06685348  0.97044641  0.28206121    -0.23600
H147        H  0.13960179  0.09982239  0.51261293     0.09900
H148        H  0.10878443  0.10302711  0.43903453     0.13500
H149        H  0.09254257  0.42032477  0.47592285     0.12200
H150        H  0.04521189  0.36846993  0.40323839     0.13400
H151        H  0.03284089  0.37321971  0.32154938     0.12400
H152        H  0.12926825  0.11159687  0.36884542     0.09500
H153        H  0.13318162  0.11603633  0.28739175     0.12800
H154        H  0.05095215  0.43011642  0.25711800     0.14700
C155        C  0.15880794  0.35017830  0.47412316    -0.00800
C156        C  0.15959164  0.37920068  0.43701643    -0.08900
C157        C  0.13830538  0.34888518  0.39374185    -0.17700
C158        C  0.11558239  0.28831144  0.38639554     0.04700
C159        C  0.10874503  0.25933800  0.42590946     0.18900
C160        C  0.13070386  0.29038790  0.46923527    -0.19100
C161        C  0.08268197  0.19936273  0.42120241    -0.20400
C162        C  0.06578846  0.16741661  0.37760013    -0.18900
C163        C  0.07680599  0.19466471  0.33762408     0.20300
C164        C  0.10172038  0.25547299  0.34118051     0.02400
C165        C  0.11521438  0.28036436  0.29939041    -0.13700
C166        C  0.10684237  0.24583329  0.25609821    -0.11400
C167        C  0.08274280  0.18586835  0.25320910     0.01900
C168        C  0.06581544  0.16102801  0.29406511    -0.23600
H169        H  0.17932979  0.42563123  0.44050016     0.09900
H170        H  0.14142732  0.37376602  0.36630590     0.13500
H171        H  0.12913952  0.26762089  0.49794851     0.12200
H172        H  0.07637414  0.17698373  0.45122709     0.13400
H173        H  0.04655231  0.12088184  0.37490976     0.12400
H174        H  0.13492254  0.32628555  0.29945113     0.09500
H175        H  0.11997568  0.26597486  0.22510617     0.12800
H176        H  0.04711139  0.11460418  0.29261637     0.14700
C177        C  0.24396930  0.15800219  0.78611187    -0.00800
C178        C  0.20429984  0.10596056  0.79228798    -0.08900
C179        C  0.18803400  0.09482108  0.83673583    -0.17700
C180        C  0.21089775  0.13629021  0.87627747     0.04700
C181        C  0.25532755  0.18415032  0.87051195     0.18900
C182        C  0.27202764  0.19380423  0.82554743    -0.19100
C183        C  0.28042868  0.22499860  0.90901396    -0.20400
C184        C  0.26087760  0.22147203  0.95250460    -0.18900
C185        C  0.21525906  0.17784983  0.95834696     0.20300
C186        C  0.18989368  0.13418810  0.92031668     0.02400
C187        C  0.14329001  0.09260722  0.92698365    -0.13700
C188        C  0.12237624  0.09516567  0.96892331    -0.11400
C189        C  0.14711308  0.13815943  0.00644990     0.01900
C190        C  0.19414704  0.17863693  0.00138355    -0.23600
H191        H  0.18226166  0.07744852  0.76235306     0.09900
H192        H  0.15578152  0.05536431  0.83860418     0.13500
H193        H  0.30289330  0.23415421  0.82100471     0.12200
H194        H  0.31467142  0.26120938  0.90507579     0.13400
H195        H  0.28072612  0.25468263  0.98121367     0.12400
H196        H  0.12147054  0.05842723  0.90000498     0.09500
H197        H  0.08642935  0.06228659  0.97222507     0.12800
H198        H  0.21373803  0.21166191  0.03030951     0.14700
C199        C  0.40986579  0.46763451  0.47881380    -0.00800
C200        C  0.43897031  0.44799473  0.45732229    -0.08900
C201        C  0.43071061  0.42436538  0.41044197    -0.17700
C202        C  0.39469507  0.42341381  0.38337980     0.04700
C203        C  0.36339484  0.43977325  0.40652841     0.18900
C204        C  0.36989078  0.45883977  0.45442792    -0.19100
C205        C  0.32962999  0.44404728  0.38101554    -0.20400
C206        C  0.32942199  0.93886000  0.33200795    -0.18900
C207        C  0.36258274  0.92777357  0.30845902     0.20300
C208        C  0.39235038  0.91455461  0.33326293     0.02400
C209        C  0.42248210  0.89894791  0.30763705    -0.13700
C210        C  0.42947393  0.90730488  0.26132962    -0.11400
C211        C  0.40642390  0.93084779  0.23941345     0.01900
C212        C  0.36980592  0.93577365  0.26143068    -0.23600
H213        H  0.47030789  0.45531146  0.47573798     0.09900
H214        H  0.45606495  0.41304507  0.39543011     0.13500
H215        H  0.34801002  0.47533790  0.47115631     0.12200
H216        H  0.30539670  0.45600001  0.39858367     0.13400
H217        H  0.30564297  0.94728824  0.31328766     0.12400
H218        H  0.44313710  0.88360491  0.32313790     0.09500
H219        H  0.45663872  0.90091999  0.24396781     0.12800
H220        H  0.35114568  0.95269107  0.24414231     0.14700
C221        C  0.51146287  0.42231881  0.76958937    -0.00800
C222        C  0.53837305  0.41130756  0.79909558    -0.08900
C223        C  0.53280604  0.41619428  0.84696775    -0.17700
C224        C  0.49812436  0.42916153  0.86558787     0.04700
C225        C  0.47455143  0.44556695  0.83537263     0.18900
C226        C  0.48474661  0.44695467  0.78852216    -0.19100
C227        C  0.43751946  0.45460159  0.85068986    -0.20400
C228        C  0.42244217  0.44628790  0.89534654    -0.18900
C229        C  0.44586057  0.43211169  0.92640509     0.20300
C230        C  0.48456164  0.42424050  0.91236447     0.02400
C231        C  0.00830199  0.41225954  0.94622093    -0.13700
C232        C  0.99821388  0.41713641  0.99300635    -0.11400
C233        C  0.96207131  0.93137822  0.00755894     0.01900
C234        C  0.43298409  0.93043860  0.97246509    -0.23600
H235        H  0.55907249  0.39194900  0.78468021     0.09900
H236        H  0.05186116  0.40197270  0.86748567     0.13500
H237        H  0.46383216  0.45508770  0.76521134     0.12200
H238        H  0.41896981  0.46610958  0.82745596     0.13400
H239        H  0.39272158  0.95218423  0.90597733     0.12400
H240        H  0.03790882  0.40576442  0.93845048     0.09500
H241        H  0.02167595  0.41775900  0.01911796     0.12800
H242        H  0.40551093  0.94050961  0.98333067     0.14700
N243        N  0.48882458  0.90177473  0.68522408    -0.03000
C244        C  0.49089832  0.88354071  0.72617789    -0.00400
C245        C  0.45221221  0.83151915  0.73068743    -0.23300
C246        C  0.42209214  0.82107271  0.69494038    -0.23500
C247        C  0.44388793  0.86454766  0.66791562    -0.00500
H248        H  0.44232498  0.81135512  0.76204528     0.13200
H249        H  0.38500741  0.79310881  0.69558217     0.13300
N250        N  0.40214132  0.01342585  0.55553006    -0.03000
C251        C  0.42765406  0.01397668  0.51803100    -0.00400
C252        C  0.45615648  0.06994740  0.50970106    -0.23300
C253        C  0.44543276  0.10423422  0.54110366    -0.23500
C254        C  0.41098539  0.06841724  0.56815656    -0.00500
H255        H  0.47744628  0.58256733  0.48046306     0.13200
H256        H  0.45863650  0.64903615  0.54155279     0.13300
N257        N  0.27252427  0.71001513  0.71348071    -0.03000
C258        C  0.24061592  0.68713131  0.74632333    -0.00400
C259        C  0.21015939  0.70925670  0.74938801    -0.23300
C260        C  0.22370555  0.74776244  0.71848773    -0.23500
C261        C  0.26167461  0.74770329  0.69682507    -0.00500
H262        H  0.18369466  0.70215947  0.77474162     0.13200
H263        H  0.20948036  0.77596329  0.71453838     0.13300
O264        O  0.29799072  0.78448660  0.62703384    -0.74000
O265        O  0.36400647  0.91386455  0.55990609    -0.74000
O266        O  0.38904766  0.85167342  0.60922365    -0.74100
O267        O  0.27316934  0.84614284  0.57696191    -0.74100
O268        O  0.28282861  0.90917360  0.63975698    -0.74000
O269        O  0.39777525  0.91176784  0.67381287    -0.74000
O270        O  0.37351679  0.97428687  0.62435544    -0.74000
O271        O  0.30593481  0.84621040  0.69024725    -0.74100
Ni272      Ni  0.33082142  0.84692018  0.59101803     1.25400
Ni273      Ni  0.34033963  0.91229957  0.65945062     1.25400
C274        C  0.29117762  0.79464834  0.67007145     0.88200
C275        C  0.37825247  0.96521639  0.58076104     0.88100
C276        C  0.41129863  0.88037900  0.64782709     0.88200
C277        C  0.26112607  0.88027096  0.60085514     0.88300
N278        N  0.18887964  0.86488879  0.55659838    -0.03000
C279        C  0.19174636  0.87889537  0.51255241    -0.00400
C280        C  0.23544277  0.92331348  0.50582856    -0.23300
C281        C  0.26088024  0.93806323  0.54644442    -0.23500
C282        C  0.23345547  0.89965732  0.57618503    -0.00500
H283        H  0.24858542  0.94097616  0.47386013     0.13200
H284        H  0.29828824  0.96715310  0.55058386     0.13300
N285        N  0.17633408  0.01930941  0.56231800    -0.03000
C286        C  0.16507886  0.01942092  0.51733666    -0.00400
C287        C  0.20235911  0.53345186  0.48898535    -0.23300
C288        C  0.23866456  0.54154422  0.51614549    -0.23500
C289        C  0.22393738  0.53557734  0.56127887    -0.00500
H290        H  0.20285687  0.53765280  0.45237237     0.13200
H291        H  0.27422524  0.55690359  0.50506893     0.13300
N292        N  0.47253621  0.71741899  0.69921525    -0.03000
C293        C  0.48206189  0.69117563  0.73112258    -0.00400
C294        C  0.51997427  0.68373355  0.71992854    -0.23300
C295        C  0.53624850  0.70788290  0.68040811    -0.23500
C296        C  0.50871459  0.73103229  0.66911925    -0.00500
H297        H  0.53629771  0.66680001  0.74047903     0.13200
H298        H  0.56938592  0.71594118  0.66580570     0.13300
O299        O  0.07039597  0.82729911  0.67582510    -0.74000
O300        O  0.15054852  0.97196835  0.62988209    -0.74000
O301        O  0.06806638  0.92599473  0.67927719    -0.74100
O302        O  0.15255195  0.87433915  0.62642655    -0.74100
O303        O  0.10915627  0.84231158  0.56022923    -0.74000
O304        O  0.02090586  0.88633047  0.61542336    -0.74000
O305        O  0.10245348  0.93757458  0.56692730    -0.74000
O306        O  0.02723076  0.79053154  0.60926686    -0.74100
Ni307      Ni  0.11162870  0.90103057  0.65540983     1.25400
Ni308      Ni  0.06342885  0.86312422  0.58563727     1.25400
C309        C  0.03513556  0.78582231  0.65102869     0.88200
C310        C  0.14140306  0.97608062  0.58832611     0.88100
C311        C  0.02793076  0.90806335  0.65845769     0.88200
C312        C  0.14785523  0.85695059  0.58250681     0.88300
O313        O  0.35926625  0.56577059  0.63068289    -0.74000
O314        O  0.30142661  0.64352033  0.70533067    -0.74000
O315        O  0.27034357  0.55524295  0.63299752    -0.74100
O316        O  0.39064747  0.65266820  0.70131368    -0.74100
O317        O  0.41362283  0.71523079  0.65065661    -0.74000
O318        O  0.29283244  0.62247274  0.58634631    -0.74000
O319        O  0.32476678  0.70834300  0.65657356    -0.74000
O320        O  0.37924788  0.63000801  0.58159036    -0.74100
Ni321      Ni  0.32951129  0.60223916  0.66975488     1.25400
Ni322      Ni  0.35308224  0.67136799  0.61744951     1.25400
C323        C  0.38112191  0.58764780  0.59501669     0.88200
C324        C  0.30178968  0.68744925  0.69191336     0.88100
C325        C  0.26246340  0.57324540  0.59720367     0.88200
C326        C  0.42364046  0.69595252  0.68421785     0.88300
O327        O  0.14535027  0.64523730  0.08884460    -0.80400
O328        O  0.97479932  0.49121739  0.20687268    -0.65100
O329        O  0.06563959  0.55564773  0.12007858    -1.11700
C330        C  0.96027229  0.59159787  0.04680490     1.06400
O331        O  0.40691062  0.46374663  0.16704608    -0.78300
O332        O  0.93879438  0.45362609  0.07948459    -0.65900
Ni333      Ni  0.12811554  0.60898007  0.14530371     1.34900
C334        C  0.96939215  0.46799399  0.04888908     0.85200
O335        O  0.05413870  0.49345556  0.19082021    -0.78900
O336        O  0.12056062  0.57585751  0.20245492    -0.89200
C337        C  0.42987779  0.46302463  0.20161864     0.84800
O338        O  0.10773603  0.66069676  0.17709207    -0.67400
O339        O  0.92964493  0.54482178  0.06059324    -0.86600
C340        C  0.07829732  0.64437101  0.20924627     0.85600
C341        C  0.09047589  0.52871790  0.21591992     1.07200
H342        H  0.98856512  0.58890417  0.15845116     0.39000
O343        O  0.98787278  0.55747973  0.13734139    -1.09300
O344        O  0.00320227  0.51889306  0.04888116    -0.66000
Ni345      Ni  0.03361508  0.58802659  0.09234414     1.26300
O346        O  0.04709057  0.59193735  0.20894210    -0.66200
O347        O  0.00144262  0.62059300  0.06524644    -0.78500
C348        C  0.12284375  0.63361782  0.04998100     0.85000
O349        O  0.07887495  0.61414540  0.04678592    -0.65700
Ni350      Ni  0.42324520  0.50728935  0.11460335     1.27400
Ni351      Ni  0.02004980  0.52384750  0.16381373     1.26100
H352        H  0.06640526  0.52518980  0.09892401     0.39500
C353        C  0.94953037  0.60970366  0.00474445    -0.00800
C354        C  0.91612433  0.56848903  0.97096582    -0.08900
C355        C  0.91273991  0.58192505  0.92687224    -0.17700
C356        C  0.44311208  0.63819205  0.91471722     0.04700
C357        C  0.47327340  0.68146310  0.95068677     0.18900
C358        C  0.47678068  0.66711543  0.99474001    -0.19100
C359        C  0.50105320  0.73824068  0.94188866    -0.20400
C360        C  0.50125050  0.75240295  0.89746972    -0.18900
C361        C  0.47515917  0.70968955  0.86040992     0.20300
C362        C  0.44544388  0.65194550  0.86850049     0.02400
C363        C  0.42230796  0.60968693  0.82946803    -0.13700
C364        C  0.43093880  0.62359981  0.78429041    -0.11400
C365        C  0.46107269  0.68016529  0.77666627     0.01900
C366        C  0.48151513  0.72346346  0.81480979    -0.23100
H367        H  0.89414718  0.52467952  0.97772498     0.09900
H368        H  0.88693313  0.54763701  0.90238750     0.13500
H369        H  0.50196832  0.69970724  0.02104630     0.12200
H370        H  0.52347328  0.77172275  0.96933921     0.13400
H371        H  0.52385597  0.79651821  0.89159819     0.12400
H372        H  0.89844241  0.56446665  0.83319297     0.09500
H373        H  0.91459513  0.58892626  0.75570391     0.12800
H374        H  0.50614823  0.76697659  0.80872939     0.14700
C375        C  0.12060038  0.51123474  0.49813505    -0.00800
C376        C  0.12014985  0.56074945  0.48898479    -0.08900
C377        C  0.10455926  0.56246279  0.44525873    -0.17700
C378        C  0.08826961  0.51387707  0.41068159     0.04700
C379        C  0.07635167  0.96002696  0.42444379     0.18900
C380        C  0.09296953  0.95852880  0.46812371    -0.19100
C381        C  0.05410242  0.90983028  0.39217451    -0.20400
C382        C  0.04735340  0.91318458  0.34563624    -0.18900
C383        C  0.06709840  0.46621947  0.32994283     0.20300
C384        C  0.08731792  0.51754788  0.36243162     0.02400
C385        C  0.11100953  0.57068010  0.34526824    -0.13700
C386        C  0.11453247  0.57287362  0.29776311    -0.11400
C387        C  0.09257902  0.52261297  0.26548764     0.01900
C388        C  0.06799940  0.46920922  0.28181341    -0.23600
H389        H  0.13941922  0.60081286  0.51217821     0.09900
H390        H  0.10891170  0.60313181  0.43811830     0.13500
H391        H  0.09174715  0.91924107  0.47519766     0.12200
H392        H  0.04383261  0.86818772  0.40250976     0.13400
H393        H  0.03111133  0.87388722  0.32112211     0.12400
H394        H  0.12920500  0.61116411  0.36785738     0.09500
H395        H  0.13327527  0.61478389  0.28628705     0.12800
H396        H  0.04948594  0.93158442  0.25716281     0.14700
C397        C  0.15610451  0.84758201  0.47345789    -0.00800
C398        C  0.15649512  0.87640828  0.43634717    -0.08900
C399        C  0.13562357  0.84595286  0.39299341    -0.17700
C400        C  0.11360352  0.78544499  0.38562672     0.04700
C401        C  0.10663266  0.75652055  0.42518618     0.18900
C402        C  0.12831211  0.78772002  0.46860585    -0.19100
C403        C  0.08077644  0.69651432  0.42039528    -0.20400
C404        C  0.06427873  0.66458490  0.37669646    -0.18900
C405        C  0.07570326  0.69188982  0.33672947     0.20300
C406        C  0.10052967  0.75268741  0.34037029     0.02400
C407        C  0.11482732  0.77771246  0.29871002    -0.13700
C408        C  0.10704275  0.74330130  0.25545005    -0.11400
C409        C  0.08273634  0.68332540  0.25242269     0.01900
C410        C  0.06522692  0.65836523  0.29314482    -0.23600
H411        H  0.17582022  0.92286020  0.43984721     0.09900
H412        H  0.13851623  0.87066639  0.36549303     0.13500
H413        H  0.12689485  0.76507919  0.49735814     0.12200
H414        H  0.07427798  0.67412349  0.45043440     0.13400
H415        H  0.04512788  0.61804190  0.37394863     0.12400
H416        H  0.13476339  0.82365535  0.29893586     0.09500
H417        H  0.12074327  0.76354221  0.22460223     0.12800
H418        H  0.04643870  0.61193421  0.29162812     0.14700
C419        C  0.24417667  0.65924229  0.78531099    -0.00800
C420        C  0.20510327  0.60670640  0.79154531    -0.08900
C421        C  0.18896203  0.59537729  0.83600032    -0.17700
C422        C  0.21124468  0.63721367  0.87548780     0.04700
C423        C  0.25506856  0.68601420  0.86965985     0.18900
C424        C  0.27175116  0.69579983  0.82472119    -0.19100
C425        C  0.27950031  0.72752628  0.90803208    -0.20400
C426        C  0.25984471  0.72359443  0.95146690    -0.18900
C427        C  0.21481615  0.67875205  0.95741407     0.20300
C428        C  0.19016275  0.63448045  0.91952907     0.02400
C429        C  0.14410666  0.59150954  0.92637071    -0.13700
C430        C  0.12300704  0.59330329  0.96832943    -0.11400
C431        C  0.14706258  0.63690568  0.00566946     0.01900
C432        C  0.19357005  0.67882931  0.00044366    -0.23600
H433        H  0.18340208  0.57769814  0.76161800     0.09900
H434        H  0.15717823  0.55540312  0.83788103     0.13500
H435        H  0.30208863  0.73660110  0.82010415     0.12200
H436        H  0.31325308  0.76451934  0.90402148     0.13400
H437        H  0.27912828  0.75730564  0.98006633     0.12400
H438        H  0.12284831  0.55671017  0.89954994     0.09500
H439        H  0.08750033  0.55939156  0.97181757     0.12800
H440        H  0.21260687  0.71235834  0.02925177     0.14700
C441        C  0.40954048  0.96820569  0.47803254    -0.00800
C442        C  0.43873355  0.94866237  0.45664732    -0.08900
C443        C  0.43040803  0.92473362  0.40985349    -0.17700
C444        C  0.39423332  0.92340034  0.38276961     0.04700
C445        C  0.36280354  0.93958079  0.40584662     0.18900
C446        C  0.36940360  0.95899440  0.45368606    -0.19100
C447        C  0.32882653  0.94339183  0.38027669    -0.20400
C448        C  0.33020641  0.43957267  0.33275532    -0.18900
C449        C  0.36310345  0.42804873  0.30911884     0.20300
C450        C  0.39277852  0.41462319  0.33385452     0.02400
C451        C  0.42268307  0.39868673  0.30812893    -0.13700
C452        C  0.42942947  0.40668135  0.26171393    -0.11400
C453        C  0.40638034  0.43022711  0.23978721     0.01900
C454        C  0.37008478  0.43568662  0.26200989    -0.23600
H455        H  0.47016948  0.95627337  0.47505769     0.09900
H456        H  0.45584393  0.91352523  0.39489993     0.13500
H457        H  0.34744217  0.97540557  0.47035501     0.12200
H458        H  0.30445057  0.95512652  0.39779700     0.13400
H459        H  0.30655398  0.44825890  0.31409256     0.12400
H460        H  0.44330540  0.38328265  0.32360421     0.09500
H461        H  0.45641196  0.40000525  0.24424145     0.12800
H462        H  0.35149280  0.45271705  0.24475705     0.14700
C463        C  0.51133191  0.92277401  0.76931769    -0.00800
C464        C  0.53809700  0.91140310  0.79873553    -0.08900
C465        C  0.53245875  0.91599107  0.84662408    -0.17700
C466        C  0.49782184  0.92898076  0.86535413     0.04700
C467        C  0.47426593  0.94550970  0.83523293     0.18900
C468        C  0.48456457  0.94725129  0.78841669    -0.19100
C469        C  0.43716449  0.95437395  0.85059131    -0.20400
C470        C  0.42202191  0.94582472  0.89519880    -0.18900
C471        C  0.44547067  0.93163590  0.92620644     0.20300
C472        C  0.48427359  0.92398030  0.91214664     0.02400
C473        C  0.00782028  0.91359196  0.94749530    -0.13700
C474        C  0.99790886  0.91906798  0.99429259    -0.11400
C475        C  0.96221460  0.42907519  0.00642752     0.01900
C476        C  0.43340802  0.43100940  0.97266899    -0.23600
H477        H  0.55877609  0.89206635  0.78420808     0.09900
H478        H  0.05059987  0.90150489  0.86866777     0.13500
H479        H  0.46371134  0.95558849  0.76519840     0.12200
H480        H  0.41862002  0.96596028  0.82742224     0.13400
H481        H  0.39315801  0.45269129  0.90608665     0.12400
H482        H  0.03729195  0.90679276  0.93979595     0.09500
H483        H  0.02135243  0.91978511  0.02047825     0.12800
H484        H  0.40599753  0.44117896  0.98355328     0.14700
N485        N  0.98895437  0.40054855  0.68556958    -0.03000
C486        C  0.99100354  0.38213876  0.72642717    -0.00400
C487        C  0.95217074  0.33023880  0.73092543    -0.23300
C488        C  0.92203007  0.32016475  0.69531264    -0.23500
C489        C  0.94400123  0.36360429  0.66828269    -0.00500
H490        H  0.94221036  0.31007940  0.76228306     0.13200
H491        H  0.88490373  0.29263761  0.69615013     0.13300
N492        N  0.90293663  0.51395248  0.55686285    -0.03000
C493        C  0.92866675  0.51467933  0.51950711    -0.00400
C494        C  0.95720504  0.57070228  0.51134870    -0.23300
C495        C  0.94633618  0.60485705  0.54274957    -0.23500
C496        C  0.91172247  0.56890490  0.56960430    -0.00500
H497        H  0.97871453  0.08258978  0.48086606     0.13200
H498        H  0.95975757  0.14920478  0.54169678     0.13300
N499        N  0.77285189  0.20946207  0.71339157    -0.03000
C500        C  0.74054867  0.18604473  0.74580045    -0.00400
C501        C  0.70974797  0.20766496  0.74838820    -0.23300
C502        C  0.72351692  0.24644721  0.71770200    -0.23500
C503        C  0.76192596  0.24699650  0.69660473    -0.00500
H504        H  0.68295575  0.20019494  0.77342317     0.13200
H505        H  0.70912931  0.27443472  0.71356280     0.13300
O506        O  0.79851972  0.28441082  0.62719218    -0.74000
O507        O  0.86470482  0.41434446  0.56082441    -0.74000
O508        O  0.88956114  0.35159098  0.60958730    -0.74100
O509        O  0.77388140  0.34656190  0.57767899    -0.74100
O510        O  0.78354478  0.40925736  0.64073664    -0.74000
O511        O  0.89826680  0.41124127  0.67448140    -0.74000
O512        O  0.87423795  0.47441221  0.62553177    -0.74000
O513        O  0.80640982  0.34568435  0.69072573    -0.74100
Ni514      Ni  0.83144219  0.34713401  0.59154973     1.25400
Ni515      Ni  0.84094974  0.41208541  0.66029697     1.25400
C516        C  0.79161935  0.29424049  0.67024705     0.88200
C517        C  0.87897722  0.46559642  0.58190548     0.88100
C518        C  0.91170604  0.37989667  0.64831310     0.88200
C519        C  0.76188587  0.38061125  0.60175704     0.88300
N520        N  0.68989156  0.36514918  0.55724244    -0.03000
C521        C  0.69310299  0.37926080  0.51321915    -0.00400
C522        C  0.73674718  0.42404159  0.50692033    -0.23300
C523        C  0.76179201  0.43889387  0.54781808    -0.23500
C524        C  0.73423722  0.40012192  0.57726322    -0.00500
H525        H  0.75012801  0.44191082  0.47507881     0.13200
H526        H  0.79913482  0.46825817  0.55232268     0.13300
N527        N  0.67689645  0.51944668  0.56243794    -0.03000
C528        C  0.66577037  0.51979638  0.51746474    -0.00400
C529        C  0.70283900  0.03309810  0.48843131    -0.23300
C530        C  0.73911775  0.04138828  0.51575226    -0.23500
C531        C  0.72430725  0.03560931  0.56087169    -0.00500
H532        H  0.70340636  0.03715320  0.45178314     0.13200
H533        H  0.77469815  0.05668105  0.50475632     0.13300
N534        N  0.97293853  0.21629669  0.69891423    -0.03000
C535        C  0.98211530  0.18950914  0.73058183    -0.00400
C536        C  0.02009298  0.18215128  0.71950223    -0.23300
C537        C  0.03672016  0.20683402  0.68025988    -0.23500
C538        C  0.00928222  0.23013103  0.66900478    -0.00500
H539        H  0.03636395  0.16519873  0.74010292     0.13200
H540        H  0.06999525  0.21511471  0.66588651     0.13300
O541        O  0.57040584  0.32692743  0.67547995    -0.74000
O542        O  0.65102630  0.47172140  0.62980647    -0.74000
O543        O  0.56839445  0.42584707  0.67871930    -0.74100
O544        O  0.65291570  0.37402422  0.62668618    -0.74100
O545        O  0.61010970  0.34246283  0.56013393    -0.74000
O546        O  0.52136956  0.38595983  0.61477857    -0.74000
O547        O  0.60310856  0.43753183  0.56672877    -0.74000
O548        O  0.52785393  0.29028351  0.60855385    -0.74100
Ni549      Ni  0.61191091  0.40074736  0.65524172     1.25400
Ni550      Ni  0.56411619  0.36299228  0.58520939     1.25400
C551        C  0.53537375  0.28546028  0.65038818     0.88200
C552        C  0.64196120  0.47601329  0.58827068     0.88100
C553        C  0.52832289  0.40785367  0.65777507     0.88200
C554        C  0.64860697  0.35695316  0.58274389     0.88300
O555        O  0.85962057  0.06560073  0.63017532    -0.74000
O556        O  0.80180182  0.14302826  0.70512136    -0.74000
O557        O  0.77069670  0.05508017  0.63256035    -0.74100
O558        O  0.89097356  0.15205622  0.70098787    -0.74100
O559        O  0.91418646  0.21486816  0.65052964    -0.74000
O560        O  0.79331170  0.12247750  0.58605769    -0.74000
O561        O  0.82526163  0.20807667  0.65655593    -0.74000
O562        O  0.87981129  0.13006682  0.58125855    -0.74100
Ni563      Ni  0.82985946  0.10187385  0.66936470     1.25400
Ni564      Ni  0.85360358  0.17125342  0.61726584     1.25400
C565        C  0.88165071  0.08768262  0.59465459     0.88200
C566        C  0.80221123  0.18703275  0.69183008     0.88100
C567        C  0.76285215  0.07322562  0.59683944     0.88200
C568        C  0.92409411  0.19528428  0.68395383     0.88300
O569        O  0.64542422  0.14614264  0.08901097    -0.80400
O570        O  0.47411297  0.99168529  0.20623604    -0.65100
O571        O  0.56550918  0.05631689  0.11991106    -1.11700
C572        C  0.46092398  0.09321996  0.04629727     1.06400
O573        O  0.90705486  0.96644640  0.16791021    -0.78300
O574        O  0.43868910  0.95491532  0.07905908    -0.65900
Ni575      Ni  0.62796153  0.10936687  0.14522059     1.34900
C576        C  0.46944839  0.96906491  0.04862671     0.85200
O577        O  0.55339240  0.99361100  0.19046746    -0.78900
O578        O  0.62015510  0.07568069  0.20205862    -0.89200
C579        C  0.92998592  0.96564222  0.20245461     0.84800
O580        O  0.60770183  0.16106083  0.17733101    -0.67400
O581        O  0.43014702  0.04650824  0.06002129    -0.86600
C582        C  0.57824178  0.14470477  0.20946876     0.85600
C583        C  0.58990814  0.02858096  0.21546007     1.07200
H584        H  0.48876200  0.09015906  0.15811819     0.39000
O585        O  0.48793765  0.05867995  0.13697763    -1.09300
O586        O  0.50334414  0.01989215  0.04860971    -0.66000
Ni587      Ni  0.53384369  0.08900661  0.09204708     1.26300
O588        O  0.54680781  0.09232835  0.20895468    -0.66200
O589        O  0.50208003  0.12196998  0.06477763    -0.78500
C590        C  0.62311026  0.13411801  0.04996682     0.85000
O591        O  0.57917051  0.11468301  0.04653748    -0.65700
Ni592      Ni  0.92348941  0.00991780  0.11545922     1.27400
Ni593      Ni  0.51969144  0.02451510  0.16347107     1.26100
H594        H  0.56624182  0.02583502  0.09876371     0.39500
C595        C  0.45027742  0.11142137  0.00425699    -0.00800
C596        C  0.41642547  0.07029149  0.97078388    -0.08900
C597        C  0.41290511  0.08353681  0.92667793    -0.17700
C598        C  0.94351665  0.13959275  0.91501727     0.04700
C599        C  0.97451028  0.18282383  0.95054256     0.18900
C600        C  0.97793506  0.16882670  0.99473611    -0.19100
C601        C  0.00328053  0.23913051  0.94114058    -0.20400
C602        C  0.00364820  0.25279135  0.89653051    -0.18900
C603        C  0.97664079  0.20998391  0.85990940     0.20300
C604        C  0.94589192  0.15276019  0.86860642     0.02400
C605        C  0.92178212  0.11029595  0.82994700    -0.13700
C606        C  0.93046710  0.12341559  0.78454448    -0.11400
C607        C  0.96159313  0.17946200  0.77638152     0.01900
C608        C  0.98303398  0.22304524  0.81413650    -0.23100
H609        H  0.39418510  0.02662677  0.97776683     0.09900
H610        H  0.38670788  0.04932545  0.90244692     0.13500
H611        H  0.00371020  0.20130351  0.02067892     0.12200
H612        H  0.02638418  0.27258012  0.96824837     0.13400
H613        H  0.02706036  0.29649909  0.89016274     0.12400
H614        H  0.39869011  0.06512125  0.83306348     0.09500
H615        H  0.41469499  0.08873017  0.75535253     0.12800
H616        H  0.00835905  0.26610016  0.80760086     0.14700
C617        C  0.62112636  0.01122955  0.49741210    -0.00800
C618        C  0.62084021  0.06083065  0.48825970    -0.08900
C619        C  0.60508943  0.06250361  0.44461462    -0.17700
C620        C  0.58851191  0.01381525  0.41011747     0.04700
C621        C  0.57687923  0.46001233  0.42454249     0.18900
C622        C  0.59373017  0.45872542  0.46817416    -0.19100
C623        C  0.55464714  0.40971103  0.39238449    -0.20400
C624        C  0.54769191  0.41284131  0.34584393    -0.18900
C625        C  0.56676849  0.96601796  0.32946007     0.20300
C626        C  0.58739859  0.01739323  0.36188385     0.02400
C627        C  0.61133879  0.07045239  0.34466674    -0.13700
C628        C  0.61463219  0.07256166  0.29716863    -0.11400
C629        C  0.59219145  0.02231517  0.26494773     0.01900
C630        C  0.56741622  0.96895287  0.28132223    -0.23600
H631        H  0.64030016  0.10092564  0.51136764     0.09900
H632        H  0.60954224  0.10320542  0.43744711     0.13500
H633        H  0.59269118  0.41953912  0.47525227     0.12200
H634        H  0.54458486  0.36816081  0.40279672     0.13400
H635        H  0.53152093  0.37346585  0.32141376     0.12400
H636        H  0.62991156  0.11092670  0.36719826     0.09500
H637        H  0.63357273  0.11444544  0.28567423     0.12800
H638        H  0.54968816  0.43082631  0.25727919     0.14700
C639        C  0.65777654  0.34785501  0.47389267    -0.00800
C640        C  0.65814648  0.37669400  0.43681100    -0.08900
C641        C  0.63713210  0.34624339  0.39349705    -0.17700
C642        C  0.61500907  0.28571595  0.38611612     0.04700
C643        C  0.60826705  0.25678326  0.42563074     0.18900
C644        C  0.63007470  0.28797825  0.46900905    -0.19100
C645        C  0.58239425  0.19677714  0.42085203    -0.20400
C646        C  0.56559175  0.16484027  0.37719443    -0.18900
C647        C  0.57668564  0.19212957  0.33722309     0.20300
C648        C  0.60154210  0.25293780  0.34087041     0.02400
C649        C  0.61540727  0.27795537  0.29917434    -0.13700
C650        C  0.60722738  0.24354892  0.25585626    -0.11400
C651        C  0.58295142  0.18357152  0.25280725     0.01900
C652        C  0.56581869  0.15859232  0.29359169    -0.23600
H653        H  0.67743497  0.42315247  0.44034070     0.09900
H654        H  0.63993473  0.37098892  0.36605373     0.13500
H655        H  0.62871091  0.26533963  0.49774650     0.12200
H656        H  0.57606927  0.17439313  0.45087377     0.13400
H657        H  0.54640354  0.11830098  0.37446076     0.12400
H658        H  0.63529305  0.32389312  0.29936814     0.09500
H659        H  0.62061218  0.26380227  0.22495658     0.12800
H660        H  0.54703028  0.11215600  0.29202795     0.14700
C661        C  0.74423865  0.15883234  0.78521404    -0.00800
C662        C  0.70542413  0.10617785  0.79168211    -0.08900
C663        C  0.68940896  0.09505073  0.83621049    -0.17700
C664        C  0.71154334  0.13720381  0.87555404     0.04700
C665        C  0.75509170  0.18630439  0.86951408     0.18900
C666        C  0.77164554  0.19592750  0.82451346    -0.19100
C667        C  0.77937450  0.22818164  0.90773157    -0.20400
C668        C  0.75983960  0.22425117  0.95122260    -0.18900
C669        C  0.71505005  0.17906227  0.95737557     0.20300
C670        C  0.69055448  0.13445191  0.91965489     0.02400
C671        C  0.64470914  0.09111181  0.92670931    -0.13700
C672        C  0.62361055  0.09295731  0.96866645    -0.11400
C673        C  0.64747644  0.13698862  0.00579184     0.01900
C674        C  0.69383655  0.17918637  0.00041737    -0.23600
H675        H  0.68382603  0.07679869  0.76184628     0.09900
H676        H  0.65782911  0.05491228  0.83825332     0.13500
H677        H  0.80173460  0.23686477  0.81971956     0.12200
H678        H  0.81291328  0.26542279  0.90355741     0.13400
H679        H  0.77899750  0.25822647  0.97969515     0.12400
H680        H  0.62358682  0.05601259  0.90003569     0.09500
H681        H  0.58822530  0.05883895  0.97229807     0.12800
H682        H  0.71272443  0.21303775  0.02906871     0.14700
C683        C  0.91091206  0.46889437  0.47948703    -0.00800
C684        C  0.94044856  0.44983262  0.45820021    -0.08900
C685        C  0.93228241  0.42580855  0.41142271    -0.17700
C686        C  0.89590084  0.42389068  0.38424856     0.04700
C687        C  0.86413211  0.43953690  0.40724027     0.18900
C688        C  0.87060986  0.45905766  0.45506823    -0.19100
C689        C  0.82987431  0.44270352  0.38158832    -0.20400
C690        C  0.82980039  0.93992826  0.33351752    -0.18900
C691        C  0.86276586  0.92877719  0.30961644     0.20300
C692        C  0.89243270  0.91502140  0.33400465     0.02400
C693        C  0.92240833  0.89947090  0.30801042    -0.13700
C694        C  0.92940433  0.90841910  0.26182313    -0.11400
C695        C  0.90643800  0.93239279  0.24036804     0.01900
C696        C  0.86994190  0.93729031  0.26268660    -0.23600
H697        H  0.97198990  0.45787575  0.47667470     0.09900
H698        H  0.95794986  0.41497664  0.39654675     0.13500
H699        H  0.84834499  0.47504104  0.47166456     0.12200
H700        H  0.80523825  0.45401844  0.39904184     0.13400
H701        H  0.80608974  0.94875279  0.31510440     0.12400
H702        H  0.94297393  0.88376357  0.32315417     0.09500
H703        H  0.95647802  0.90207877  0.24420392     0.12800
H704        H  0.85136340  0.95456989  0.24574404     0.14700
C705        C  0.01137356  0.42132634  0.76957117    -0.00800
C706        C  0.03803634  0.40990372  0.79905856    -0.08900
C707        C  0.03232034  0.41455331  0.84692115    -0.17700
C708        C  0.99768067  0.42761133  0.86553884     0.04700
C709        C  0.97421197  0.44415598  0.83533239     0.18900
C710        C  0.98462733  0.44589049  0.78855256    -0.19100
C711        C  0.93710517  0.45307249  0.85057759    -0.20400
C712        C  0.92195793  0.44471223  0.89520848    -0.18900
C713        C  0.94538366  0.43061341  0.92632369     0.20300
C714        C  0.98408626  0.42271869  0.91231636     0.02400
C715        C  0.50874509  0.41364967  0.94621617    -0.13700
C716        C  0.49864869  0.41842128  0.99300210    -0.11400
C717        C  0.46233305  0.93002626  0.00626062     0.01900
C718        C  0.93288478  0.93193215  0.97366966    -0.23600
H719        H  0.05870148  0.39051110  0.78460895     0.09900
H720        H  0.55250110  0.40384293  0.86754818     0.13500
H721        H  0.96386355  0.45427605  0.76526104     0.12200
H722        H  0.91859390  0.46460753  0.82732165     0.13400
H723        H  0.89303001  0.95373759  0.90686269     0.12400
H724        H  0.53831241  0.40708732  0.93841429     0.09500
H725        H  0.52207585  0.41894068  0.01909608     0.12800
H726        H  0.90568911  0.94256582  0.98441594     0.14700
N727        N  0.98837672  0.90047353  0.68639670    -0.03000
C728        C  0.99033055  0.88200497  0.72727736    -0.00400
C729        C  0.95138817  0.83019197  0.73175881    -0.23300
C730        C  0.92128206  0.82026123  0.69616945    -0.23500
C731        C  0.94337355  0.86363125  0.66911291    -0.00500
H732        H  0.94135691  0.81001500  0.76310544     0.13200
H733        H  0.88413932  0.79281464  0.69696792     0.13300
N734        N  0.90300059  0.01304193  0.55621545    -0.03000
C735        C  0.92879052  0.01331342  0.51903310    -0.00400
C736        C  0.95789949  0.06927002  0.51096887    -0.23300
C737        C  0.94719431  0.10381937  0.54212505    -0.23500
C738        C  0.91219668  0.06816626  0.56879854    -0.00500
H739        H  0.97780496  0.58425682  0.48115376     0.13200
H740        H  0.95848357  0.65015878  0.54237244     0.13300
N741        N  0.77255433  0.71025329  0.71464825    -0.03000
C742        C  0.74130698  0.68816680  0.74817662    -0.00400
C743        C  0.71137418  0.71104535  0.75200802    -0.23300
C744        C  0.72456066  0.74919551  0.72085662    -0.23500
C745        C  0.76182795  0.74823932  0.69831503    -0.00500
H746        H  0.68547407  0.70454633  0.77789815     0.13200
H747        H  0.71063559  0.77779613  0.71730611     0.13300
O748        O  0.79779172  0.78446337  0.62815790    -0.74000
O749        O  0.86425339  0.91348737  0.56069501    -0.74000
O750        O  0.88887290  0.85113272  0.61024966    -0.74100
O751        O  0.77334020  0.84629054  0.57776204    -0.74100
O752        O  0.78325937  0.90966681  0.64038314    -0.74000
O753        O  0.89781468  0.91152152  0.67470740    -0.74000
O754        O  0.87400240  0.97419182  0.62502706    -0.74000
O755        O  0.80597240  0.84656139  0.69117207    -0.74100
Ni756      Ni  0.83081091  0.84670302  0.59195069     1.25400
Ni757      Ni  0.84058024  0.91242891  0.66022020     1.25400
C758        C  0.79112533  0.79489952  0.67120030     0.88200
C759        C  0.87874564  0.96493357  0.58146514     0.88100
C760        C  0.91114252  0.87984647  0.64884065     0.88200
C761        C  0.76153004  0.88073733  0.60149722     0.88300
N762        N  0.68955998  0.86556083  0.55693592    -0.03000
C763        C  0.69259599  0.87961079  0.51290126    -0.00400
C764        C  0.73628952  0.92412908  0.50634225    -0.23300
C765        C  0.76160137  0.93876916  0.54705123    -0.23500
C766        C  0.73405322  0.90027719  0.57669348    -0.00500
H767        H  0.74950726  0.94188695  0.47442579     0.13200
H768        H  0.79900283  0.96786051  0.55133575     0.13300
N769        N  0.67728237  0.02025007  0.56174570    -0.03000
C770        C  0.66601338  0.02085259  0.51687995    -0.00400
C771        C  0.70271327  0.53200676  0.48918663    -0.23300
C772        C  0.73893595  0.54060099  0.51675980    -0.23500
C773        C  0.72392755  0.53497548  0.56181785    -0.00500
H774        H  0.70343213  0.53599406  0.45251729     0.13200
H775        H  0.77459710  0.55605179  0.50596758     0.13300
N776        N  0.97209322  0.71670048  0.69974545    -0.03000
C777        C  0.98136437  0.69026205  0.73166721    -0.00400
C778        C  0.01915181  0.68252785  0.72055122    -0.23300
C779        C  0.03557858  0.70662716  0.68103277    -0.23500
C780        C  0.00823738  0.72999705  0.66964612    -0.00500
H781        H  0.03530623  0.66544585  0.74115737     0.13200
H782        H  0.06868575  0.71446548  0.66647681     0.13300
O783        O  0.57058952  0.82855609  0.67551869    -0.74000
O784        O  0.65127590  0.97297164  0.62934563    -0.74000
O785        O  0.56856047  0.92744241  0.67837749    -0.74100
O786        O  0.65297647  0.87521742  0.62649710    -0.74100
O787        O  0.60987644  0.84311499  0.56011025    -0.74000
O788        O  0.52155670  0.88748283  0.61443291    -0.74000
O789        O  0.60337460  0.93848029  0.56625406    -0.74000
O790        O  0.52775947  0.79160748  0.60876850    -0.74100
Ni791      Ni  0.61207087  0.90218512  0.65500197     1.25400
Ni792      Ni  0.56414149  0.86411356  0.58505869     1.25400
C793        C  0.53548156  0.78696936  0.65060973     0.88200
C794        C  0.64228469  0.97700114  0.58770996     0.88100
C795        C  0.52846854  0.90939326  0.65741881     0.88200
C796        C  0.64844799  0.85771617  0.58261147     0.88300
O797        O  0.85921287  0.56601110  0.63128571    -0.74000
O798        O  0.80099252  0.64325810  0.70602949    -0.74000
O799        O  0.77015683  0.55500339  0.63361388    -0.74100
O800        O  0.89019663  0.65256149  0.70203841    -0.74100
O801        O  0.91328598  0.71505243  0.65132026    -0.74000
O802        O  0.79234858  0.62236497  0.58711575    -0.74000
O803        O  0.82440336  0.70824646  0.65741715    -0.74000
O804        O  0.87880797  0.63014600  0.58215723    -0.74100
Ni805      Ni  0.82921130  0.60213425  0.67040699     1.25400
Ni806      Ni  0.85265863  0.67132487  0.61817022     1.25400
C807        C  0.88098535  0.58801034  0.59561391     0.88200
C808        C  0.80147724  0.68733987  0.69276870     0.88100
C809        C  0.76218050  0.57297166  0.59786438     0.88200
C810        C  0.92324957  0.69566678  0.68485567     0.88300
O811        O  0.64511854  0.64699866  0.08983994    -0.80400
O812        O  0.47394321  0.49104339  0.20647688    -0.65100
O813        O  0.56539886  0.55696550  0.12054753    -1.11700
C814        C  0.46011354  0.59233482  0.04656453     1.06400
O815        O  0.90757343  0.46327707  0.16758855    -0.78300
O816        O  0.43898277  0.45444389  0.07942493    -0.65900
Ni817      Ni  0.62761812  0.61049942  0.14620121     1.34900
C818        C  0.46969150  0.46906552  0.04895501     0.85200
O819        O  0.55372803  0.49435520  0.19101019    -0.78900
O820        O  0.61979883  0.57711010  0.20325431    -0.89200
C821        C  0.93073158  0.46300659  0.20221840     0.84800
O822        O  0.60654583  0.66160288  0.17780215    -0.67400
O823        O  0.42955910  0.54530407  0.06004108    -0.86600
C824        C  0.57699621  0.64494999  0.20984231     0.85600
C825        C  0.58979345  0.52972159  0.21642551     1.07200
H826        H  0.48773557  0.58932494  0.15853613     0.39000
O827        O  0.48729377  0.55809849  0.13736771    -1.09300
O828        O  0.50333263  0.52011012  0.04904157    -0.66000
Ni829      Ni  0.53329699  0.58916611  0.09270308     1.26300
O830        O  0.54598954  0.59238101  0.20940114    -0.66200
O831        O  0.50106866  0.62158687  0.06546111    -0.78500
C832        C  0.62278127  0.63533805  0.05085793     0.85000
O833        O  0.57881525  0.61580588  0.04747330    -0.65700
Ni834      Ni  0.92362244  0.50679645  0.11508264     1.27400
Ni835      Ni  0.51953263  0.52454072  0.16390270     1.26100
H836        H  0.56647143  0.52674667  0.09934665     0.39500
C837        C  0.44960170  0.61042465  0.00435712    -0.00800
C838        C  0.41641340  0.56915247  0.97044617    -0.08900
C839        C  0.41325742  0.58254116  0.92628119    -0.17700
C840        C  0.94260800  0.63755435  0.91524997     0.04700
C841        C  0.97310668  0.68072260  0.95109656     0.18900
C842        C  0.97677550  0.66634294  0.99507448    -0.19100
C843        C  0.00111578  0.73742549  0.94224178    -0.20400
C844        C  0.00124776  0.75161225  0.89786153    -0.18900
C845        C  0.97477907  0.70900018  0.86090565     0.20300
C846        C  0.94472809  0.65135951  0.86906707     0.02400
C847        C  0.92106569  0.60923028  0.83009686    -0.13700
C848        C  0.92971032  0.62307223  0.78489100    -0.11400
C849        C  0.96033661  0.67948675  0.77721624     0.01900
C850        C  0.98112324  0.72273946  0.81531128    -0.23100
H851        H  0.39441278  0.52534142  0.97718129     0.09900
H852        H  0.38757581  0.54823222  0.90171267     0.13500
H853        H  0.00217923  0.69886080  0.02126751     0.12200
H854        H  0.02381922  0.77081093  0.96960151     0.13400
H855        H  0.02409618  0.79564298  0.89192324     0.12400
H856        H  0.40013378  0.56481744  0.83251742     0.09500
H857        H  0.41620085  0.58943282  0.75508266     0.12800
H858        H  0.00604220  0.76612665  0.80917676     0.14700
C859        C  0.62102353  0.51041151  0.49785641    -0.00800
C860        C  0.62071271  0.56014364  0.48913629    -0.08900
C861        C  0.60469098  0.56214433  0.44573383    -0.17700
C862        C  0.58798463  0.51369427  0.41098240     0.04700
C863        C  0.57720742  0.96027812  0.42408412     0.18900
C864        C  0.59381082  0.95933132  0.46795577    -0.19100
C865        C  0.55503833  0.90976641  0.39213158    -0.20400
C866        C  0.54824878  0.91253054  0.34545220    -0.18900
C867        C  0.56610513  0.46649778  0.33017272     0.20300
C868        C  0.58663087  0.51766323  0.36283311     0.02400
C869        C  0.61029153  0.57092499  0.34587048    -0.13700
C870        C  0.61367611  0.57340132  0.29840274    -0.11400
C871        C  0.59163208  0.52330957  0.26596387     0.01900
C872        C  0.56687419  0.46979045  0.28209420    -0.23600
H873        H  0.64022477  0.60007920  0.51241320     0.09900
H874        H  0.60902950  0.60292753  0.43893561     0.13500
H875        H  0.59265634  0.92020963  0.47537792     0.12200
H876        H  0.54484730  0.86832547  0.40283849     0.13400
H877        H  0.53206393  0.87299488  0.32120492     0.12400
H878        H  0.62864818  0.61129554  0.36856823     0.09500
H879        H  0.63248806  0.61540624  0.28709996     0.12800
H880        H  0.55002369  0.92986428  0.25666688     0.14700
C881        C  0.65700379  0.84826819  0.47378083    -0.00800
C882        C  0.65709954  0.87708290  0.43678572    -0.08900
C883        C  0.63567021  0.84658389  0.39360393    -0.17700
C884        C  0.61349565  0.78604534  0.38625746     0.04700
C885        C  0.60710373  0.75716681  0.42574263     0.18900
C886        C  0.62924947  0.78840617  0.46898901    -0.19100
C887        C  0.58129222  0.69715895  0.42103542    -0.20400
C888        C  0.56423920  0.66516059  0.37744452    -0.18900
C889        C  0.57504530  0.69239413  0.33745409     0.20300
C890        C  0.59977209  0.75320606  0.34104633     0.02400
C891        C  0.61337349  0.77817193  0.29930911    -0.13700
C892        C  0.60525619  0.74373242  0.25602278    -0.11400
C893        C  0.58124570  0.68376194  0.25305054     0.01900
C894        C  0.56416164  0.65880632  0.29384915    -0.23600
H895        H  0.67645739  0.92353784  0.44026753     0.09900
H896        H  0.63823627  0.87129491  0.36621007     0.13500
H897        H  0.62812643  0.76579751  0.49766590     0.12200
H898        H  0.57526241  0.67481672  0.45104399     0.13400
H899        H  0.54515441  0.61862206  0.37475351     0.12400
H900        H  0.63309033  0.82410919  0.29944520     0.09500
H901        H  0.61856324  0.76396178  0.22509883     0.12800
H902        H  0.54554641  0.61237436  0.29233870     0.14700
C903        C  0.74483799  0.65958476  0.78666774    -0.00800
C904        C  0.70540614  0.60731039  0.79276201    -0.08900
C905        C  0.68903233  0.59607621  0.83715379    -0.17700
C906        C  0.71154762  0.63768003  0.87671042     0.04700
C907        C  0.75580752  0.68587609  0.87106178     0.18900
C908        C  0.77265085  0.69560486  0.82616024    -0.19100
C909        C  0.78054638  0.72693704  0.90958123    -0.20400
C910        C  0.76077880  0.72323875  0.95296772    -0.18900
C911        C  0.71531926  0.67916986  0.95869123     0.20300
C912        C  0.69033514  0.63533427  0.92064115     0.02400
C913        C  0.64387241  0.59325612  0.92717891    -0.13700
C914        C  0.62274668  0.59541965  0.96903861    -0.11400
C915        C  0.64712692  0.63851875  0.00660573     0.01900
C916        C  0.69399719  0.67959857  0.00164569    -0.23600
H917        H  0.68356667  0.57864424  0.76277848     0.09900
H918        H  0.65694067  0.55641049  0.83893899     0.13500
H919        H  0.80334473  0.73613881  0.82166568     0.12200
H920        H  0.81465517  0.76342538  0.90572763     0.13400
H921        H  0.78033430  0.75659952  0.98169071     0.12400
H922        H  0.62232435  0.55891950  0.90017805     0.09500
H923        H  0.58693658  0.56211995  0.97226176     0.12800
H924        H  0.71329866  0.71273681  0.03060361     0.14700
C925        C  0.91039496  0.96781242  0.47884740    -0.00800
C926        C  0.93923670  0.94793242  0.45711026    -0.08900
C927        C  0.93057348  0.92417056  0.41027477    -0.17700
C928        C  0.89446283  0.92341912  0.38351538     0.04700
C929        C  0.86332529  0.93982127  0.40697307     0.18900
C930        C  0.87023014  0.95903105  0.45483449    -0.19100
C931        C  0.82938254  0.94410867  0.38177230    -0.20400
C932        C  0.83044850  0.43804039  0.33331145    -0.18900
C933        C  0.86386953  0.42742489  0.30981919     0.20300
C934        C  0.89403039  0.41490652  0.33472923     0.02400
C935        C  0.92443188  0.39972433  0.30917248    -0.13700
C936        C  0.93111120  0.40764085  0.26274765    -0.11400
C937        C  0.90754311  0.43041119  0.24061777     0.01900
C938        C  0.87084130  0.43508742  0.26269261    -0.23600
H939        H  0.97065159  0.95512080  0.47528728     0.09900
H940        H  0.95572926  0.91263526  0.39504539     0.13500
H941        H  0.84850904  0.97563477  0.47179187     0.12200
H942        H  0.80521428  0.95598690  0.39958878     0.13400
H943        H  0.80638304  0.44593696  0.31452407     0.12400
H944        H  0.94545552  0.38495946  0.32477906     0.09500
H945        H  0.95838935  0.40149140  0.24540192     0.12800
H946        H  0.85181560  0.45146022  0.24529767     0.14700
C947        C  0.01061070  0.92108278  0.77051619    -0.00800
C948        C  0.03698228  0.90937110  0.80013903    -0.08900
C949        C  0.03132871  0.91436420  0.84801052    -0.17700
C950        C  0.99707840  0.92817575  0.86656849     0.04700
C951        C  0.97382354  0.94484963  0.83622514     0.18900
C952        C  0.98407274  0.94601496  0.78937298    -0.19100
C953        C  0.93708913  0.95454357  0.85145675    -0.20400
C954        C  0.92203593  0.94672239  0.89617025    -0.18900
C955        C  0.94522326  0.93241913  0.92737503     0.20300
C956        C  0.98365465  0.92392006  0.91343755     0.02400
C957        C  0.50861835  0.91365595  0.94601710    -0.13700
C958        C  0.49849482  0.91838790  0.99281262    -0.11400
C959        C  0.46263966  0.43031592  0.00644322     0.01900
C960        C  0.93297276  0.42968842  0.97261329    -0.23600
H961        H  0.05738110  0.88955694  0.78580043     0.09900
H962        H  0.55203214  0.90338336  0.86712164     0.13500
H963        H  0.96343317  0.95449373  0.76600535     0.12200
H964        H  0.91877210  0.96625790  0.82813088     0.13400
H965        H  0.89267493  0.45113971  0.90591398     0.12400
H966        H  0.53835570  0.90743694  0.93821314     0.09500
H967        H  0.52205264  0.91918551  0.01891339     0.12800
H968        H  0.90559936  0.43994301  0.98346062     0.14700
loop_ 
_geom_bond_atom_site_label_1 
_geom_bond_atom_site_label_2 
_geom_bond_distance 
_geom_bond_site_symmetry_2 
_ccdc_geom_bond_type 
N1            C5   1.369       .  A
N1            C2   1.360       .  A
N1          C553   1.451       .  S
C2            C3   1.374       .  A
C2          C221   1.457       .  S
C3            C4   1.351       .  A
C3            H6   1.084       .  S
C4            C5   1.377       .  A
C4            H7   1.072       .  S
C5           C34   1.479       .  S
N8           C12   1.359       .  A
N8            C9   1.353       .  A
N8           C33   1.438       .  S
C9           C10   1.382       .  A
C9          C199   1.468       .  S
C10          C11   1.370       .  A
C10         H255   1.083       .  S
C11          C12   1.384       .  A
C11         H256   1.083       .  S
C12         C323   1.486       .  S
H13         C252   1.083       .  S
H14         C253   1.083       .  S
N15          C19   1.369       .  A
N15          C16   1.364       .  A
N15          C82   1.452       .  S
C16          C17   1.382       .  A
C16         C177   1.475       .  S
C17          C18   1.362       .  A
C17          H20   1.083       .  S
C18          C19   1.378       .  A
C18          H21   1.083       .  S
C19          C32   1.473       .  S
O22         Ni30   1.930       .  S
O22          C32   1.281       .  A
O23         Ni30   1.929       .  S
O23          C33   1.285       .  A
O24         Ni30   1.924       .  S
O24          C34   1.280       .  A
O25         Ni30   1.925       .  S
O25          C35   1.282       .  A
O26         Ni31   1.935       .  S
O26          C35   1.284       .  A
O27         Ni31   1.938       .  S
O27          C34   1.286       .  A
O28         Ni31   1.906       .  S
O28          C33   1.277       .  A
O29         Ni31   1.911       .  S
O29          C32   1.281       .  A
Ni30        Ni31   2.387       .  S
C35          C40   1.479       .  S
N36          C40   1.373       .  A
N36          C37   1.369       .  A
N36          C70   1.457       .  S
C37          C38   1.375       .  A
C37         C155   1.484       .  S
C38          C39   1.356       .  A
C38          H41   1.082       .  S
C39          C40   1.384       .  A
C39          H42   1.081       .  S
N43          C44   1.366       .  A
N43         C289   1.383       .  A
N43          C68   1.457       .  S
C44         C287   1.371       .  A
C44         C375   1.472       .  S
C45          C46   1.351       .  A
C45         C286   1.371       .  A
C45          H48   1.083       .  S
C46          C47   1.387       .  A
C46          H49   1.084       .  S
C47         N285   1.383       .  A
C47          C83   1.495       .  S
N50          C54   1.382       .  A
N50          C51   1.361       .  A
N50          C84   1.464       .  S
C51          C52   1.373       .  A
C51         C123   1.472       .  S
C52          C53   1.362       .  A
C52          H55   1.083       .  S
C53          C54   1.385       .  A
C53          H56   1.083       .  S
C54         C551   1.492       .  S
O57         Ni65   1.943       .  S
O57          C67   1.289       .  A
O58         Ni65   1.943       .  S
O58          C68   1.282       .  A
O59         Ni65   1.925       .  S
O59          C69   1.288       .  A
O60         Ni65   1.929       .  S
O60          C70   1.283       .  A
O61         Ni66   1.934       .  S
O61          C70   1.287       .  A
O62         Ni66   1.926       .  S
O62          C69   1.282       .  A
O63         Ni66   1.922       .  S
O63          C68   1.287       .  A
O64         Ni66   1.935       .  S
O64          C67   1.281       .  A
Ni65        Ni66   2.378       .  S
C67         C538   1.492       .  S
C69         N485   1.451   1_455  S
O71         Ni79   1.941       .  S
O71          C81   1.283       .  A
O72         Ni79   1.945       .  S
O72          C82   1.287       .  A
O73         Ni79   1.955       .  S
O73          C83   1.284       .  A
O74         Ni79   1.943       .  S
O74          C84   1.292       .  A
O75         Ni80   1.937       .  S
O75          C84   1.281       .  A
O76         Ni80   1.917       .  S
O76          C83   1.286       .  A
O77         Ni80   1.917       .  S
O77          C82   1.280       .  A
O78         Ni80   1.902       .  S
O78          C81   1.280       .  A
Ni79        Ni80   2.378       .  S
C81         C254   1.485       .  S
O85         Ni91   1.951       .  S
O85         C106   1.278       .  A
O86        Ni109   1.861   1_665  S
O86         C579   1.259       .  A
O87         Ni91   1.922       .  S
O87        Ni109   1.877       .  S
O87        Ni103   1.900       .  S
O87         H110   0.966       .  S
C88         C111   1.482       .  S
C88         O105   1.267   1_655  A
C88          O97   1.277       .  A
O89        Ni108   1.949   1_565  S
O89          C95   1.275       .  A
O90        Ni592   1.903   1_565  S
O90          C92   1.269       .  A
Ni91         O94   1.942       .  S
Ni91         O96   1.938       .  S
C92         C233   1.448       .  S
C92         O102   1.273   1_665  A
O93        Ni109   1.902   1_565  S
O93          C99   1.264   1_565  A
O94          C99   1.275       .  A
C95         C211   1.468       .  S
C95         O570   1.259       .  A
O96          C98   1.283       .  A
O97        Ni592   1.950       .  S
C98         C167   1.482       .  S
C98         O104   1.274       .  A
C99         C145   1.477       .  S
H100        O101   0.966       .  S
O101       Ni109   1.914   1_655  S
O101       Ni103   1.902   1_655  S
O101       Ni592   1.930       .  S
O102       Ni103   1.914       .  S
Ni103       O107   1.891       .  S
Ni103       O105   1.900       .  S
O104       Ni109   1.920       .  S
C106        C189   1.486       .  S
C106        O107   1.268       .  A
Ni108       O574   1.904   1_545  S
Ni108       O581   1.950       .  S
Ni108       O585   1.930       .  S
C111        C112   1.401   1_554  A
C111        C600   1.404   1_554  A
C112        C113   1.397       .  A
C112        H125   1.083       .  S
C113        C598   1.414       .  A
C113        H126   1.078       .  S
C114        C120   1.429       .  A
C114        C115   1.422       .  A
C114        C597   1.414       .  A
C115        C117   1.401       .  A
C115        C116   1.407       .  A
C116        C595   1.404   1_556  A
C116        H127   1.085   1_556  S
C117        C118   1.391       .  A
C117        H128   1.084       .  S
C118        C119   1.400       .  A
C118        H129   1.084       .  S
C119        C120   1.423       .  A
C119        C124   1.405       .  A
C120        C121   1.416       .  A
C121        C122   1.397       .  A
C121        H614   1.078       .  S
C122        C123   1.397       .  A
C122        H615   1.084       .  S
C123        C124   1.399       .  A
C124        H132   1.085       .  S
H130        C605   1.078       .  S
H131        C606   1.084       .  S
C133        C134   1.398       .  A
C133        C380   1.406   1_545  A
C133        C286   1.472       .  S
C134        C135   1.393       .  A
C134        H147   1.084       .  S
C135        C136   1.412       .  A
C135        H148   1.080       .  S
C136        C142   1.419       .  A
C136        C379   1.415   1_545  A
C137        C139   1.401       .  A
C137        C138   1.404       .  A
C137        C378   1.415       .  A
C138        C375   1.406       .  A
C138        H149   1.084       .  S
C139        C140   1.396       .  A
C139        H150   1.084       .  S
C140        C383   1.402       .  A
C140        H151   1.084       .  S
C141        C142   1.422   1_565  A
C141        C146   1.409       .  A
C141        C382   1.402       .  A
C142        C143   1.408       .  A
C143        C144   1.388       .  A
C143        H152   1.079       .  S
C144        C145   1.402       .  A
C144        H153   1.083       .  S
C145        C146   1.404   1_545  A
C146        H396   1.084       .  S
H154        C388   1.084       .  S
C155        C156   1.405       .  A
C155        C160   1.397       .  A
C156        C157   1.393       .  A
C156        H169   1.081       .  S
C157        C158   1.408       .  A
C157        H170   1.079       .  S
C158        C164   1.427       .  A
C158        C159   1.425       .  A
C159        C161   1.397       .  A
C159        C160   1.404       .  A
C160        H171   1.084       .  S
C161        C162   1.387       .  A
C161        H172   1.084       .  S
C162        C163   1.401       .  A
C162        H173   1.084       .  S
C163        C164   1.417       .  A
C163        C168   1.395       .  A
C164        C165   1.421       .  A
C165        C166   1.405       .  A
C165        H174   1.078       .  S
C166        C167   1.398       .  A
C166        H175   1.083       .  S
C167        C168   1.407       .  A
C168        H176   1.085       .  S
C177        C178   1.399       .  A
C177        C182   1.404       .  A
C178        C179   1.398       .  A
C178        H191   1.084       .  S
C179        C180   1.416       .  A
C179        H192   1.078       .  S
C180        C186   1.432       .  A
C180        C181   1.420       .  A
C181        C183   1.402       .  A
C181        C182   1.410       .  A
C182        H193   1.085       .  S
C183        C184   1.395       .  A
C183        H194   1.084       .  S
C184        C185   1.401       .  A
C184        H195   1.084       .  S
C185        C186   1.425       .  A
C185        C190   1.416   1_556  A
C186        C187   1.411       .  A
C187        C188   1.392       .  A
C187        H196   1.078       .  S
C188        C189   1.404   1_556  A
C188        H197   1.084       .  S
C189        C190   1.404       .  A
C190        H198   1.084       .  S
C199        C200   1.395       .  A
C199        C204   1.400       .  A
C200        C201   1.396       .  A
C200        H213   1.084       .  S
C201        C202   1.418       .  A
C201        H214   1.078       .  S
C202        C203   1.420       .  A
C202        C450   1.423       .  A
C203        C205   1.401       .  A
C203        C204   1.400       .  A
C204        H215   1.086       .  S
C205        C448   1.391       .  A
C205        H216   1.084       .  S
C206        C207   1.398       .  A
C206        C447   1.391       .  A
C206        H217   1.084       .  S
C207        C208   1.424       .  A
C207        C212   1.407       .  A
C208        C209   1.408       .  A
C208        C444   1.423       .  A
C209        C210   1.388       .  A
C209        H218   1.078       .  S
C210        C211   1.403       .  A
C210        H219   1.084       .  S
C211        C212   1.398       .  A
C212        H220   1.084       .  S
C221        C222   1.397       .  A
C221        C226   1.395       .  A
C222        C223   1.395       .  A
C222        H235   1.084       .  S
C223        C224   1.415       .  A
C223        H720   1.077       .  S
C224        C230   1.422       .  A
C224        C225   1.422       .  A
C225        C227   1.397       .  A
C225        C226   1.394       .  A
C226        H237   1.086       .  S
C227        C228   1.383       .  A
C227        H238   1.084       .  S
C228        C229   1.397       .  A
C228        H481   1.084       .  S
C229        C230   1.422       .  A
C229        C476   1.394       .  A
C230        C715   1.415       .  A
C231        C232   1.394   1_455  A
C231        C714   1.415   1_455  A
C231        H240   1.077       .  S
C232        C475   1.397   1_556  A
C232        H241   1.084   1_656  S
C233        C474   1.397   1_554  A
C233        C718   1.393   1_554  A
C234        C471   1.394       .  A
C234        C717   1.393   1_556  A
C234        H242   1.086       .  S
H236        C707   1.077       .  S
H239        C470   1.084       .  S
N243        C247   1.371       .  A
N243        C244   1.360       .  A
N243        C795   1.452       .  S
C244        C245   1.374       .  A
C244        C463   1.458       .  S
C245        C246   1.351       .  A
C245        H248   1.084       .  S
C246        C247   1.377       .  A
C246        H249   1.072       .  S
C247        C276   1.481       .  S
N250        C254   1.359       .  A
N250        C251   1.353       .  A
N250        C275   1.437   1_545  S
C251        C252   1.382       .  A
C251        C441   1.467   1_545  S
C252        C253   1.370       .  A
C253        C254   1.384       .  A
N257        C261   1.369       .  A
N257        C258   1.364       .  A
N257        C324   1.452       .  S
C258        C259   1.382       .  A
C258        C419   1.475       .  S
C259        C260   1.362       .  A
C259        H262   1.083       .  S
C260        C261   1.378       .  A
C260        H263   1.083       .  S
C261        C274   1.472       .  S
O264       Ni272   1.929       .  S
O264        C274   1.281       .  A
O265       Ni272   1.928       .  S
O265        C275   1.285       .  A
O266       Ni272   1.926       .  S
O266        C276   1.281       .  A
O267       Ni272   1.926       .  S
O267        C277   1.283       .  A
O268       Ni273   1.936       .  S
O268        C277   1.284       .  A
O269       Ni273   1.939       .  S
O269        C276   1.286       .  A
O270       Ni273   1.906       .  S
O270        C275   1.277       .  A
O271       Ni273   1.911       .  S
O271        C274   1.281       .  A
Ni272      Ni273   2.386       .  S
C277        C282   1.480       .  S
N278        C282   1.374       .  A
N278        C279   1.369       .  A
N278        C312   1.458       .  S
C279        C280   1.375       .  A
C279        C397   1.485       .  S
C280        C281   1.356       .  A
C280        H283   1.082       .  S
C281        C282   1.384       .  A
C281        H284   1.082       .  S
N285        C286   1.366       .  A
N285        C310   1.458   1_545  S
C287        C288   1.350       .  A
C287        H290   1.083       .  S
C288        C289   1.388       .  A
C288        H291   1.084       .  S
C289        C325   1.495       .  S
N292        C296   1.382       .  A
N292        C293   1.362       .  A
N292        C326   1.464       .  S
C293        C294   1.373       .  A
C293        C365   1.473       .  S
C294        C295   1.362       .  A
C294        H297   1.082       .  S
C295        C296   1.385       .  A
C295        H298   1.083       .  S
C296        C793   1.492       .  S
O299       Ni307   1.941       .  S
O299        C309   1.289       .  A
O300       Ni307   1.942       .  S
O300        C310   1.281       .  A
O301       Ni307   1.928       .  S
O301        C311   1.289       .  A
O302       Ni307   1.931       .  S
O302        C312   1.284       .  A
O303       Ni308   1.934       .  S
O303        C312   1.288       .  A
O304       Ni308   1.926       .  S
O304        C311   1.282       .  A
O305       Ni308   1.923       .  S
O305        C310   1.288       .  A
O306       Ni308   1.936       .  S
O306        C309   1.281       .  A
Ni307      Ni308   2.378       .  S
C309        C780   1.492       .  S
C311        N727   1.452   1_455  S
O313       Ni321   1.942       .  S
O313        C323   1.283       .  A
O314       Ni321   1.944       .  S
O314        C324   1.286       .  A
O315       Ni321   1.957       .  S
O315        C325   1.284       .  A
O316       Ni321   1.945       .  S
O316        C326   1.292       .  A
O317       Ni322   1.935       .  S
O317        C326   1.281       .  A
O318       Ni322   1.914       .  S
O318        C325   1.285       .  A
O319       Ni322   1.918       .  S
O319        C324   1.280       .  A
O320       Ni322   1.904       .  S
O320        C323   1.280       .  A
Ni321      Ni322   2.378       .  S
O327       Ni333   1.950       .  S
O327        C348   1.278       .  A
O328       Ni351   1.860   1_655  S
O328        C821   1.259       .  A
O329       Ni333   1.923       .  S
O329       Ni351   1.877       .  S
O329       Ni345   1.901       .  S
O329        H352   0.966       .  S
C330        C353   1.482       .  S
C330        O347   1.267   1_655  A
C330        O339   1.278       .  A
O331       Ni350   1.950       .  S
O331        C337   1.275       .  A
O332       Ni834   1.904       .  S
O332        C334   1.269       .  A
Ni333       O336   1.941       .  S
Ni333       O338   1.938       .  S
C334        C475   1.449       .  S
C334        O344   1.273   1_655  A
O335       Ni351   1.903       .  S
O335        C341   1.264       .  A
O336        C341   1.275       .  A
C337        C453   1.468       .  S
C337        O812   1.259       .  A
O338        C340   1.283       .  A
O339       Ni834   1.951       .  S
C340        C409   1.483       .  S
C340        O346   1.274       .  A
C341        C387   1.477       .  S
H342        O343   0.966       .  S
O343       Ni351   1.914   1_655  S
O343       Ni345   1.901   1_655  S
O343       Ni834   1.929       .  S
O344       Ni345   1.914       .  S
Ni345       O349   1.891       .  S
Ni345       O347   1.900       .  S
O346       Ni351   1.919       .  S
C348        C431   1.484       .  S
C348        O349   1.268       .  A
Ni350       O816   1.903       .  S
Ni350       O823   1.951       .  S
Ni350       O827   1.929       .  S
C353        C354   1.401   1_554  A
C353        C842   1.404   1_554  A
C354        C355   1.397       .  A
C354        H367   1.083       .  S
C355        C840   1.414       .  A
C355        H368   1.078       .  S
C356        C839   1.414       .  A
C356        C362   1.430       .  A
C356        C357   1.422       .  A
C357        C359   1.401       .  A
C357        C358   1.407       .  A
C358        C837   1.404   1_556  A
C358        H369   1.084   1_556  S
C359        C360   1.392       .  A
C359        H370   1.084       .  S
C360        C361   1.401       .  A
C360        H371   1.084       .  S
C361        C362   1.423       .  A
C361        C366   1.406       .  A
C362        C363   1.416       .  A
C363        C364   1.397       .  A
C363        H856   1.078       .  S
C364        C365   1.397       .  A
C364        H857   1.084       .  S
C365        C366   1.400       .  A
C366        H374   1.085       .  S
H372        C847   1.078       .  S
H373        C848   1.084       .  S
C375        C376   1.398       .  A
C376        C377   1.394       .  A
C376        H389   1.084       .  S
C377        C378   1.412       .  A
C377        H390   1.080       .  S
C378        C384   1.420       .  A
C379        C381   1.402       .  A
C379        C380   1.404       .  A
C380        H391   1.084       .  S
C381        C382   1.396       .  A
C381        H392   1.084       .  S
C382        H393   1.084       .  S
C383        C384   1.422       .  A
C383        C388   1.409       .  A
C384        C385   1.408       .  A
C385        C386   1.388       .  A
C385        H394   1.079       .  S
C386        C387   1.402       .  A
C386        H395   1.083       .  S
C387        C388   1.404       .  A
C397        C398   1.405       .  A
C397        C402   1.398       .  A
C398        C399   1.393       .  A
C398        H411   1.081       .  S
C399        C400   1.408       .  A
C399        H412   1.079       .  S
C400        C406   1.426       .  A
C400        C401   1.425       .  A
C401        C403   1.397       .  A
C401        C402   1.405       .  A
C402        H413   1.084       .  S
C403        C404   1.388       .  A
C403        H414   1.084       .  S
C404        C405   1.402       .  A
C404        H415   1.084       .  S
C405        C406   1.416       .  A
C405        C410   1.395       .  A
C406        C407   1.421       .  A
C407        C408   1.404       .  A
C407        H416   1.079       .  S
C408        C409   1.398       .  A
C408        H417   1.083       .  S
C409        C410   1.408       .  A
C410        H418   1.085       .  S
C419        C420   1.399       .  A
C419        C424   1.404       .  A
C420        C421   1.398       .  A
C420        H433   1.084       .  S
C421        C422   1.416       .  A
C421        H434   1.078       .  S
C422        C428   1.432       .  A
C422        C423   1.420       .  A
C423        C425   1.402       .  A
C423        C424   1.410       .  A
C424        H435   1.085       .  S
C425        C426   1.395       .  A
C425        H436   1.084       .  S
C426        C427   1.401       .  A
C426        H437   1.084       .  S
C427        C428   1.426       .  A
C427        C432   1.415   1_556  A
C428        C429   1.411       .  A
C429        C430   1.392       .  A
C429        H438   1.078       .  S
C430        C431   1.403   1_556  A
C430        H439   1.084       .  S
C431        C432   1.403       .  A
C432        H440   1.084       .  S
C441        C442   1.394       .  A
C441        C446   1.400       .  A
C442        C443   1.395       .  A
C442        H455   1.084       .  S
C443        C444   1.418       .  A
C443        H456   1.078       .  S
C444        C445   1.420       .  A
C445        C447   1.401       .  A
C445        C446   1.399       .  A
C446        H457   1.086       .  S
C447        H458   1.084       .  S
C448        C449   1.398       .  A
C448        H459   1.084       .  S
C449        C450   1.424       .  A
C449        C454   1.407       .  A
C450        C451   1.408       .  A
C451        C452   1.389       .  A
C451        H460   1.078       .  S
C452        C453   1.403       .  A
C452        H461   1.084       .  S
C453        C454   1.397       .  A
C454        H462   1.084       .  S
C463        C464   1.398       .  A
C463        C468   1.395       .  A
C464        C465   1.395       .  A
C464        H477   1.084       .  S
C465        C466   1.415       .  A
C465        H962   1.078       .  S
C466        C472   1.422       .  A
C466        C467   1.422       .  A
C467        C469   1.397       .  A
C467        C468   1.394       .  A
C468        H479   1.086       .  S
C469        C470   1.383       .  A
C469        H480   1.084       .  S
C470        C471   1.397       .  A
C471        C472   1.423       .  A
C472        C957   1.415       .  A
C473        C956   1.415   1_455  A
C473        C474   1.395   1_455  A
C473        H482   1.078       .  S
C474        H483   1.084   1_656  S
C475        C960   1.393   1_554  A
C476        C959   1.393   1_556  A
C476        H484   1.086       .  S
H478        C949   1.077       .  S
N485        C489   1.370       .  A
N485        C486   1.360       .  A
C486        C487   1.374       .  A
C486        C705   1.458   1_655  S
C487        C488   1.351       .  A
C487        H490   1.084       .  S
C488        C489   1.377       .  A
C488        H491   1.072       .  S
C489        C518   1.479       .  S
N492        C496   1.359       .  A
N492        C493   1.353       .  A
N492        C517   1.437       .  S
C493        C494   1.382       .  A
C493        C683   1.468       .  S
C494        C495   1.370       .  A
C494        H739   1.083       .  S
C495        C496   1.384       .  A
C495        H740   1.083       .  S
C496        C807   1.485       .  S
H497        C736   1.083       .  S
H498        C737   1.083       .  S
N499        C503   1.369       .  A
N499        C500   1.364       .  A
N499        C566   1.452       .  S
C500        C501   1.382       .  A
C500        C661   1.475       .  S
C501        C502   1.362       .  A
C501        H504   1.083       .  S
C502        C503   1.378       .  A
C502        H505   1.083       .  S
C503        C516   1.471       .  S
O506       Ni514   1.928       .  S
O506        C516   1.280       .  A
O507       Ni514   1.927       .  S
O507        C517   1.285       .  A
O508       Ni514   1.924       .  S
O508        C518   1.280       .  A
O509       Ni514   1.925       .  S
O509        C519   1.283       .  A
O510       Ni515   1.935       .  S
O510        C519   1.284       .  A
O511       Ni515   1.938       .  S
O511        C518   1.286       .  A
O512       Ni515   1.906       .  S
O512        C517   1.277       .  A
O513       Ni515   1.911       .  S
O513        C516   1.281       .  A
Ni514      Ni515   2.387       .  S
C519        C524   1.479       .  S
N520        C524   1.374       .  A
N520        C521   1.369       .  A
N520        C554   1.457       .  S
C521        C522   1.375       .  A
C521        C639   1.484       .  S
C522        C523   1.356       .  A
C522        H525   1.082       .  S
C523        C524   1.384       .  A
C523        H526   1.082       .  S
N527        C773   1.383       .  A
N527        C528   1.366       .  A
N527        C552   1.457       .  S
C528        C771   1.371       .  A
C528        C859   1.472       .  S
C529        C770   1.371       .  A
C529        C530   1.350       .  A
C529        H532   1.083       .  S
C530        C531   1.388       .  A
C530        H533   1.084       .  S
C531        N769   1.384       .  A
C531        C567   1.496       .  S
N534        C538   1.382   1_655  A
N534        C535   1.362       .  A
N534        C568   1.464       .  S
C535        C536   1.373   1_655  A
C535        C607   1.473       .  S
C536        C537   1.362       .  A
C536        H539   1.083       .  S
C537        C538   1.385       .  A
C537        H540   1.083       .  S
O541       Ni549   1.943       .  S
O541        C551   1.289       .  A
O542       Ni549   1.943       .  S
O542        C552   1.282       .  A
O543       Ni549   1.925       .  S
O543        C553   1.288       .  A
O544       Ni549   1.930       .  S
O544        C554   1.283       .  A
O545       Ni550   1.934       .  S
O545        C554   1.288       .  A
O546       Ni550   1.926       .  S
O546        C553   1.282       .  A
O547       Ni550   1.922       .  S
O547        C552   1.287       .  A
O548       Ni550   1.935       .  S
O548        C551   1.281       .  A
Ni549      Ni550   2.378       .  S
O555       Ni563   1.940       .  S
O555        C565   1.283       .  A
O556       Ni563   1.944       .  S
O556        C566   1.286       .  A
O557       Ni563   1.957       .  S
O557        C567   1.284       .  A
O558       Ni563   1.944       .  S
O558        C568   1.292       .  A
O559       Ni564   1.937       .  S
O559        C568   1.281       .  A
O560       Ni564   1.916       .  S
O560        C567   1.286       .  A
O561       Ni564   1.918       .  S
O561        C566   1.280       .  A
O562       Ni564   1.903       .  S
O562        C565   1.280       .  A
Ni563      Ni564   2.378       .  S
C565        C738   1.485       .  S
O569       Ni575   1.950       .  S
O569        C590   1.278       .  A
O570       Ni593   1.861   1_565  S
O571       Ni575   1.922       .  S
O571       Ni593   1.877       .  S
O571       Ni587   1.901       .  S
O571        H594   0.966       .  S
C572        C595   1.482       .  S
C572        O589   1.266       .  A
C572        O581   1.277       .  A
O573       Ni592   1.949   1_565  S
O573        C579   1.275       .  A
O574        C576   1.269       .  A
Ni575       O578   1.940       .  S
Ni575       O580   1.938       .  S
C576        C717   1.449       .  S
C576        O586   1.272   1_565  A
O577       Ni593   1.903   1_565  S
O577        C583   1.265   1_565  A
O578        C583   1.275       .  A
C579        C695   1.468       .  S
O580        C582   1.283       .  A
C582        C651   1.483       .  S
C582        O588   1.274       .  A
C583        C629   1.477       .  S
H584        O585   0.966       .  S
O585       Ni593   1.915       .  S
O585       Ni587   1.902       .  S
O586       Ni587   1.914       .  S
Ni587       O591   1.890       .  S
Ni587       O589   1.900       .  S
O588       Ni593   1.920       .  S
C590        C673   1.484       .  S
C590        O591   1.267       .  A
C595        C596   1.401   1_554  A
C596        C597   1.396       .  A
C596        H609   1.083       .  S
C597        H610   1.078       .  S
C598        C604   1.429       .  A
C598        C599   1.422       .  A
C599        C601   1.400   1_655  A
C599        C600   1.406       .  A
C600        H611   1.085   1_656  S
C601        C602   1.391       .  A
C601        H612   1.084       .  S
C602        C603   1.400   1_455  A
C602        H613   1.084       .  S
C603        C604   1.423       .  A
C603        C608   1.405       .  A
C604        C605   1.416       .  A
C605        C606   1.397       .  A
C606        C607   1.397       .  A
C607        C608   1.399       .  A
C608        H616   1.085   1_655  S
C617        C618   1.398       .  A
C617        C864   1.406   1_545  A
C617        C770   1.472       .  S
C618        C619   1.393       .  A
C618        H631   1.084       .  S
C619        C620   1.412       .  A
C619        H632   1.080       .  S
C620        C626   1.419       .  A
C620        C863   1.415   1_545  A
C621        C862   1.415       .  A
C621        C623   1.402       .  A
C621        C622   1.404       .  A
C622        C859   1.406       .  A
C622        H633   1.084       .  S
C623        C624   1.396       .  A
C623        H634   1.084       .  S
C624        C867   1.402       .  A
C624        H635   1.084       .  S
C625        C866   1.402       .  A
C625        C626   1.422   1_565  A
C625        C630   1.409       .  A
C626        C627   1.407       .  A
C627        C628   1.387       .  A
C627        H636   1.079       .  S
C628        C629   1.402       .  A
C628        H637   1.083       .  S
C629        C630   1.404   1_545  A
C630        H880   1.084       .  S
H638        C872   1.084       .  S
C639        C640   1.405       .  A
C639        C644   1.398       .  A
C640        C641   1.393       .  A
C640        H653   1.081       .  S
C641        C642   1.408       .  A
C641        H654   1.079       .  S
C642        C648   1.427       .  A
C642        C643   1.425       .  A
C643        C645   1.397       .  A
C643        C644   1.405       .  A
C644        H655   1.084       .  S
C645        C646   1.388       .  A
C645        H656   1.084       .  S
C646        C647   1.402       .  A
C646        H657   1.084       .  S
C647        C648   1.416       .  A
C647        C652   1.395       .  A
C648        C649   1.421       .  A
C649        C650   1.404       .  A
C649        H658   1.079       .  S
C650        C651   1.398       .  A
C650        H659   1.083       .  S
C651        C652   1.408       .  A
C652        H660   1.084       .  S
C661        C662   1.399       .  A
C661        C666   1.404       .  A
C662        C663   1.398       .  A
C662        H675   1.084       .  S
C663        C664   1.416       .  A
C663        H676   1.078       .  S
C664        C670   1.432       .  A
C664        C665   1.420       .  A
C665        C667   1.402       .  A
C665        C666   1.410       .  A
C666        H677   1.085       .  S
C667        C668   1.395       .  A
C667        H678   1.084       .  S
C668        C669   1.401       .  A
C668        H679   1.084       .  S
C669        C670   1.426       .  A
C669        C674   1.415   1_556  A
C670        C671   1.411       .  A
C671        C672   1.393       .  A
C671        H680   1.078       .  S
C672        C673   1.403   1_556  A
C672        H681   1.084       .  S
C673        C674   1.403       .  A
C674        H682   1.084       .  S
C683        C684   1.395       .  A
C683        C688   1.400       .  A
C684        C685   1.395       .  A
C684        H697   1.084       .  S
C685        C686   1.418       .  A
C685        H698   1.078       .  S
C686        C934   1.423       .  A
C686        C687   1.420       .  A
C687        C689   1.401       .  A
C687        C688   1.400       .  A
C688        H699   1.086       .  S
C689        C932   1.391       .  A
C689        H700   1.084       .  S
C690        C931   1.391       .  A
C690        C691   1.398       .  A
C690        H701   1.084       .  S
C691        C692   1.425       .  A
C691        C696   1.407       .  A
C692        C928   1.423       .  A
C692        C693   1.408       .  A
C693        C694   1.388       .  A
C693        H702   1.078       .  S
C694        C695   1.402       .  A
C694        H703   1.084       .  S
C695        C696   1.397       .  A
C696        H704   1.084       .  S
C705        C706   1.397       .  A
C705        C710   1.395   1_455  A
C706        C707   1.395       .  A
C706        H719   1.084       .  S
C707        C708   1.416   1_455  A
C708        C714   1.422       .  A
C708        C709   1.422       .  A
C709        C711   1.397       .  A
C709        C710   1.394       .  A
C710        H721   1.086       .  S
C711        C712   1.383       .  A
C711        H722   1.084       .  S
C712        C713   1.397       .  A
C712        H965   1.084       .  S
C713        C714   1.423       .  A
C713        C960   1.395       .  A
C715        C716   1.394       .  A
C715        H724   1.077       .  S
C716        C959   1.396   1_556  A
C716        H725   1.084   1_556  S
C717        C958   1.397   1_554  A
C718        C955   1.394       .  A
C718        H726   1.086       .  S
H723        C954   1.084       .  S
N727        C731   1.370       .  A
N727        C728   1.361       .  A
C728        C729   1.375       .  A
C728        C947   1.458   1_655  S
C729        C730   1.351       .  A
C729        H732   1.084       .  S
C730        C731   1.377       .  A
C730        H733   1.072       .  S
C731        C760   1.480       .  S
N734        C738   1.358       .  A
N734        C735   1.352       .  A
N734        C759   1.437   1_545  S
C735        C736   1.382       .  A
C735        C925   1.467   1_545  S
C736        C737   1.371       .  A
C737        C738   1.384       .  A
N741        C745   1.370       .  A
N741        C742   1.364       .  A
N741        C808   1.453       .  S
C742        C743   1.382       .  A
C742        C903   1.475       .  S
C743        C744   1.362       .  A
C743        H746   1.083       .  S
C744        C745   1.378       .  A
C744        H747   1.083       .  S
C745        C758   1.472       .  S
O748       Ni756   1.930       .  S
O748        C758   1.281       .  A
O749       Ni756   1.928       .  S
O749        C759   1.285       .  A
O750       Ni756   1.925       .  S
O750        C760   1.281       .  A
O751       Ni756   1.926       .  S
O751        C761   1.283       .  A
O752       Ni757   1.936       .  S
O752        C761   1.284       .  A
O753       Ni757   1.939       .  S
O753        C760   1.286       .  A
O754       Ni757   1.905       .  S
O754        C759   1.277       .  A
O755       Ni757   1.910       .  S
O755        C758   1.281       .  A
Ni756      Ni757   2.386       .  S
C761        C766   1.480       .  S
N762        C766   1.374       .  A
N762        C763   1.369       .  A
N762        C796   1.457       .  S
C763        C764   1.375       .  A
C763        C881   1.485       .  S
C764        C765   1.357       .  A
C764        H767   1.082       .  S
C765        C766   1.384       .  A
C765        H768   1.082       .  S
N769        C770   1.366       .  A
N769        C794   1.458   1_545  S
C771        C772   1.350       .  A
C771        H774   1.083       .  S
C772        C773   1.388       .  A
C772        H775   1.084       .  S
C773        C809   1.494       .  S
N776        C780   1.382   1_655  A
N776        C777   1.362       .  A
N776        C810   1.463       .  S
C777        C778   1.373   1_655  A
C777        C849   1.473       .  S
C778        C779   1.362       .  A
C778        H781   1.082       .  S
C779        C780   1.385       .  A
C779        H782   1.083       .  S
O783       Ni791   1.942       .  S
O783        C793   1.289       .  A
O784       Ni791   1.943       .  S
O784        C794   1.281       .  A
O785       Ni791   1.927       .  S
O785        C795   1.289       .  A
O786       Ni791   1.931       .  S
O786        C796   1.283       .  A
O787       Ni792   1.933       .  S
O787        C796   1.287       .  A
O788       Ni792   1.926       .  S
O788        C795   1.282       .  A
O789       Ni792   1.923       .  S
O789        C794   1.288       .  A
O790       Ni792   1.936       .  S
O790        C793   1.281       .  A
Ni791      Ni792   2.378       .  S
O797       Ni805   1.942       .  S
O797        C807   1.284       .  A
O798       Ni805   1.945       .  S
O798        C808   1.287       .  A
O799       Ni805   1.955       .  S
O799        C809   1.284       .  A
O800       Ni805   1.942       .  S
O800        C810   1.291       .  A
O801       Ni806   1.937       .  S
O801        C810   1.281       .  A
O802       Ni806   1.915       .  S
O802        C809   1.286       .  A
O803       Ni806   1.917       .  S
O803        C808   1.280       .  A
O804       Ni806   1.902       .  S
O804        C807   1.280       .  A
Ni805      Ni806   2.378       .  S
O811       Ni817   1.951       .  S
O811        C832   1.278       .  A
O812       Ni835   1.861       .  S
O813       Ni817   1.922       .  S
O813       Ni835   1.877       .  S
O813       Ni829   1.901       .  S
O813        H836   0.966       .  S
C814        C837   1.483       .  S
C814        O831   1.266       .  A
C814        O823   1.277       .  A
O815       Ni834   1.952       .  S
O815        C821   1.275       .  A
O816        C818   1.269       .  A
Ni817       O820   1.941       .  S
Ni817       O822   1.938       .  S
C818        C959   1.448       .  S
C818        O828   1.273       .  A
O819       Ni835   1.903       .  S
O819        C825   1.264       .  A
O820        C825   1.275       .  A
C821        C937   1.469       .  S
O822        C824   1.283       .  A
C824        C893   1.483       .  S
C824        O830   1.274       .  A
C825        C871   1.477       .  S
H826        O827   0.966       .  S
O827       Ni835   1.915       .  S
O827       Ni829   1.901       .  S
O828       Ni829   1.915       .  S
Ni829       O833   1.890       .  S
Ni829       O831   1.900       .  S
O830       Ni835   1.921       .  S
C832        C915   1.485       .  S
C832        O833   1.268       .  A
C837        C838   1.401   1_554  A
C838        C839   1.397       .  A
C838        H851   1.082       .  S
C839        H852   1.078       .  S
C840        C846   1.430       .  A
C840        C841   1.422       .  A
C841        C843   1.400   1_655  A
C841        C842   1.407       .  A
C842        H853   1.085   1_656  S
C843        C844   1.391       .  A
C843        H854   1.084       .  S
C844        C845   1.400   1_455  A
C844        H855   1.084       .  S
C845        C846   1.423       .  A
C845        C850   1.405       .  A
C846        C847   1.416       .  A
C847        C848   1.397       .  A
C848        C849   1.397       .  A
C849        C850   1.399       .  A
C850        H858   1.085   1_655  S
C859        C860   1.398       .  A
C860        C861   1.393       .  A
C860        H873   1.084       .  S
C861        C862   1.412       .  A
C861        H874   1.080       .  S
C862        C868   1.420       .  A
C863        C865   1.402       .  A
C863        C864   1.404       .  A
C864        H875   1.084       .  S
C865        C866   1.396       .  A
C865        H876   1.084       .  S
C866        H877   1.084       .  S
C867        C868   1.422       .  A
C867        C872   1.409       .  A
C868        C869   1.408       .  A
C869        C870   1.388       .  A
C869        H878   1.079       .  S
C870        C871   1.402       .  A
C870        H879   1.083       .  S
C871        C872   1.404       .  A
C881        C882   1.405       .  A
C881        C886   1.398       .  A
C882        C883   1.393       .  A
C882        H895   1.081       .  S
C883        C884   1.408       .  A
C883        H896   1.079       .  S
C884        C890   1.427       .  A
C884        C885   1.424       .  A
C885        C887   1.397       .  A
C885        C886   1.405       .  A
C886        H897   1.084       .  S
C887        C888   1.388       .  A
C887        H898   1.084       .  S
C888        C889   1.402       .  A
C888        H899   1.084       .  S
C889        C890   1.417       .  A
C889        C894   1.395       .  A
C890        C891   1.421       .  A
C891        C892   1.404       .  A
C891        H900   1.078       .  S
C892        C893   1.398       .  A
C892        H901   1.083       .  S
C893        C894   1.408       .  A
C894        H902   1.085       .  S
C903        C904   1.399       .  A
C903        C908   1.405       .  A
C904        C905   1.397       .  A
C904        H917   1.084       .  S
C905        C906   1.416       .  A
C905        H918   1.078       .  S
C906        C912   1.431       .  A
C906        C907   1.420       .  A
C907        C909   1.402       .  A
C907        C908   1.410       .  A
C908        H919   1.085       .  S
C909        C910   1.395       .  A
C909        H920   1.084       .  S
C910        C911   1.401       .  A
C910        H921   1.084       .  S
C911        C912   1.425       .  A
C911        C916   1.416   1_556  A
C912        C913   1.411       .  A
C913        C914   1.392       .  A
C913        H922   1.078       .  S
C914        C915   1.403   1_556  A
C914        H923   1.084       .  S
C915        C916   1.404       .  A
C916        H924   1.084       .  S
C925        C926   1.394       .  A
C925        C930   1.400       .  A
C926        C927   1.395       .  A
C926        H939   1.084       .  S
C927        C928   1.418       .  A
C927        H940   1.078       .  S
C928        C929   1.420       .  A
C929        C931   1.401       .  A
C929        C930   1.399       .  A
C930        H941   1.086       .  S
C931        H942   1.084       .  S
C932        C933   1.398       .  A
C932        H943   1.084       .  S
C933        C934   1.424       .  A
C933        C938   1.408       .  A
C934        C935   1.408       .  A
C935        C936   1.388       .  A
C935        H944   1.078       .  S
C936        C937   1.403       .  A
C936        H945   1.084       .  S
C937        C938   1.398       .  A
C938        H946   1.084       .  S
C947        C948   1.397       .  A
C947        C952   1.395   1_455  A
C948        C949   1.395       .  A
C948        H961   1.084       .  S
C949        C950   1.415   1_455  A
C950        C956   1.422       .  A
C950        C951   1.422       .  A
C951        C953   1.397       .  A
C951        C952   1.394       .  A
C952        H963   1.086       .  S
C953        C954   1.383       .  A
C953        H964   1.084       .  S
C954        C955   1.397       .  A
C955        C956   1.422       .  A
C957        C958   1.395       .  A
C957        H966   1.078       .  S
C958        H967   1.084   1_556  S
C960        H968   1.086       .  S
