geometry optimzed in LAMMPS
_audit_creation_date              2020-11-30 
_audit_creation_method            'lammps2cif' 
_symmetry_space_group_name_H-M    'P1' 
_symmetry_Int_Tables_number       1 
_symmetry_cell_setting            triclinic 
loop_ 
_symmetry_equiv_pos_as_xyz 
  x,y,z 
_cell_length_a                    42.32565639 
_cell_length_b                    42.00459095127897 
_cell_length_c                    27.5618244853157 
_cell_angle_alpha                 90.14934854603867 
_cell_angle_beta                  89.79100556154025 
_cell_angle_gamma                 119.67424290659609 
loop_ 
_atom_site_label 
_atom_site_type_symbol 
_atom_site_fract_x 
_atom_site_fract_y 
_atom_site_fract_z 
_atom_site_charge 
C1          C  0.11587199  0.10957141  0.13677972     0.03800
C2          C  0.11776322  0.14259024  0.15216180    -0.12400
C3          C  0.14964392  0.17060593  0.17428400     0.01300
C4          C  0.17928503  0.16461245  0.17972835    -0.10900
C5          C  0.17827882  0.13255253  0.16329404     0.03800
C6          C  0.14629147  0.10477225  0.14247475    -0.10300
H7          H  0.09467752  0.14651849  0.14600277     0.09400
H8          H  0.20350590  0.18455113  0.19825853     0.06900
H9          H  0.14539899  0.07995579  0.12951348     0.06800
C10         C  0.34835648  0.17604994  0.23308314     0.46100
H11         H  0.35289028  0.17568928  0.19342767    -0.02900
C12         C  0.33904012  0.17719549  0.32651684     0.46200
H13         H  0.33497653  0.17764422  0.36629087    -0.02900
C14         C  0.36282891  0.15478527  0.26204022    -0.16600
C15         C  0.36712930  0.21475920  0.25499002    -0.16300
C16         C  0.30819044  0.15861096  0.24772219    -0.16700
C17         C  0.35792613  0.15518006  0.31153936    -0.16700
C18         C  0.36259219  0.21573299  0.30439252    -0.16300
C19         C  0.30320055  0.15998269  0.29712401    -0.16600
C20         C  0.17639491  0.33853346  0.24000683     0.46100
H21         H  0.17613115  0.33498669  0.20017222    -0.02900
C22         C  0.17792502  0.34520489  0.33392123     0.46200
H23         H  0.17739554  0.34762116  0.37387221    -0.02900
C24         C  0.15239895  0.35419186  0.25893883    -0.16600
C25         C  0.16266921  0.30198163  0.26672946    -0.16300
C26         C  0.21478234  0.36372708  0.26049990    -0.16700
C27         C  0.15430101  0.35859436  0.30907934    -0.16700
C28         C  0.16291318  0.30551821  0.31634513    -0.16300
C29         C  0.21591367  0.36751208  0.31065660    -0.16600
C30         C  0.01320916  0.40577177  0.13256460     0.03800
C31         C  0.04655490  0.40658068  0.13923306    -0.12400
C32         C  0.04662269  0.37402657  0.14976158     0.01300
C33         C  0.01392896  0.34097631  0.14868406    -0.10900
C34         C  0.48082383  0.34063228  0.15356014     0.03800
C35         C  0.48036766  0.37331941  0.14303650    -0.10300
H36         H  0.07198072  0.43220139  0.13678385     0.09400
H37         H  0.01494956  0.31589967  0.15354299     0.06900
H38         H  0.45520029  0.37404550  0.14324390     0.06800
C39         C  0.40984128  0.00620871  0.14380808     0.03800
C40         C  0.41225896  0.03902301  0.16066684    -0.12400
C41         C  0.38326367  0.03816542  0.18663750     0.01300
C42         C  0.35275794  0.00436213  0.19734117    -0.10900
C43         C  0.34914191  0.47140650  0.17952408     0.03800
C44         C  0.37807135  0.47240623  0.15294449    -0.10300
H45         H  0.43588287  0.06511329  0.15185457     0.09400
H46         H  0.33087422  0.00387955  0.21852654     0.06900
H47         H  0.37552122  0.44728956  0.13826134     0.06800
C48         C  0.00880372  0.40926927  0.42632830     0.03800
C49         C  0.04193836  0.41044893  0.41509733    -0.12400
C50         C  0.04204443  0.38087847  0.39105283     0.01300
C51         C  0.00871589  0.35048649  0.37773872    -0.10900
C52         C  0.47547540  0.34866865  0.38879710     0.03800
C53         C  0.47566193  0.37839304  0.41274534    -0.10300
H54         H  0.06744286  0.43379897  0.42624613     0.09400
H55         H  0.00861587  0.32789218  0.35845934     0.06900
H56         H  0.45012943  0.37700325  0.42215985     0.06800
C57         C  0.40544675  0.01178466  0.43703713     0.03800
C58         C  0.40263790  0.04342519  0.42716952    -0.12400
C59         C  0.36849736  0.03985776  0.41469180     0.01300
C60         C  0.33783463  0.00506395  0.41905670    -0.10900
C61         C  0.34145028  0.47382293  0.41819906     0.03800
C62         C  0.37517094  0.47697268  0.42879402    -0.10300
H63         H  0.42679898  0.07013707  0.42876394     0.09400
H64         H  0.31087160  0.00153422  0.41515198     0.06900
H65         H  0.37781777  0.45263065  0.43064477     0.06800
C66         C  0.11206408  0.11213072  0.42907707     0.03800
C67         C  0.11455020  0.14690307  0.42911395    -0.12400
C68         C  0.14447253  0.17704352  0.40755620     0.01300
C69         C  0.17149032  0.17171635  0.38642819    -0.10900
C70         C  0.16916102  0.13742271  0.38397110     0.03800
C71         C  0.13940720  0.10733468  0.40623597    -0.10300
H72         H  0.09343669  0.15045533  0.44631682     0.09400
H73         H  0.19451906  0.19462911  0.36958881     0.06900
H74         H  0.13762279  0.08070409  0.40611538     0.06800
Zn75       Zn  0.00942511  0.46713624  0.55897949     1.49700
Zn76       Zn  0.46914165  0.01529816  0.56162722     1.49400
Zn77       Zn  0.05438462  0.05494624  0.55914383     1.49100
Zn78       Zn  0.00890044  0.01185096  0.46257706     1.49500
O79         O  0.01046641  0.01210314  0.53488278    -1.83500
O80         O  0.46374662  0.43601066  0.59888691    -0.74100
O81         O  0.48343380  0.06232940  0.59873187    -0.73900
O82         O  0.08444740  0.03980022  0.59942130    -0.73400
O83         O  0.43794249  0.47094585  0.60265804    -0.74100
O84         O  0.05394004  0.47895423  0.60008949    -0.73700
O85         O  0.04359313  0.09023924  0.59689264    -0.74300
O86         O  0.05504647  0.05663166  0.43602004    -0.73700
O87         O  0.43718234  0.01505044  0.50805524    -0.74400
O88         O  0.08557216  0.08420194  0.50326254    -0.73800
O89         O  0.46286643  0.01284122  0.43843716    -0.74300
O90         O  0.00804824  0.46550732  0.43589515    -0.74200
O91         O  0.00937144  0.43602751  0.50231395    -0.74000
C92         C  0.43802092  0.44138944  0.61295933     0.77800
C93         C  0.01424538  0.08995207  0.60842373     0.78300
C94         C  0.08160674  0.00929504  0.61203531     0.77200
C95         C  0.08274946  0.08237727  0.45729884     0.77600
C96         C  0.43736710  0.01407026  0.46197935     0.78800
C97         C  0.00871023  0.43854368  0.45628170     0.77800
Zn98       Zn  0.05355826  0.05312976  0.00902510     1.49700
Zn99       Zn  0.46573105  0.00741728  0.00949166     1.49400
Zn100      Zn  0.01160947  0.46661225  0.00831704     1.49100
Zn101      Zn  0.01195913  0.00868073  0.10591349     1.49500
O102        O  0.01044873  0.00917822  0.03389585    -1.83500
O103        O  0.03846521  0.08210406  0.96717723    -0.74100
O104        O  0.43351863  0.45977779  0.97249397    -0.73900
O105        O  0.05585828  0.48099524  0.96820842    -0.73400
O106        O  0.47803915  0.05155474  0.96538624    -0.74100
O107        O  0.08718368  0.04162405  0.96943827    -0.73700
O108        O  0.46703593  0.43267598  0.97079370    -0.74300
O109        O  0.01159785  0.46212527  0.13088549    -0.73700
O110        O  0.43563473  0.00754745  0.06701724    -0.74400
O111        O  0.01344156  0.43590592  0.06156520    -0.73800
O112        O  0.46671137  0.00848474  0.13288277    -0.74300
O113        O  0.05858657  0.05406088  0.13101050    -0.74200
O114        O  0.08460160  0.08525488  0.06347287    -0.74000
C115        C  0.00848330  0.07886591  0.95261456     0.77800
C116        C  0.43778527  0.43272217  0.96072432     0.78300
C117        C  0.08401622  0.01101579  0.95693630     0.77200
C118        C  0.01266728  0.43636811  0.10753952     0.77600
C119        C  0.43903573  0.00755354  0.11300415     0.78800
C120        C  0.08423609  0.08174597  0.10932240     0.77800
C121        C  0.01615271  0.12359152  0.62945234     0.03800
C122        C  0.48447783  0.12680376  0.63509843    -0.12400
C123        C  0.48740104  0.16139553  0.64467663     0.01300
C124        C  0.02223086  0.19189049  0.64273451    -0.10900
C125        C  0.05252488  0.18780841  0.65135276     0.03800
C126        C  0.05003944  0.15384619  0.64211899    -0.10300
H127        H  0.45808528  0.10246636  0.63240133     0.09400
H128        H  0.02606106  0.21926162  0.64267736     0.06900
H129        H  0.07390454  0.15083720  0.64566564     0.06800
C130        C  0.00986294  0.10823442  0.92106085     0.03800
C131        C  0.47790817  0.10672653  0.90307450    -0.12400
C132        C  0.48007624  0.13627726  0.87633650     0.01300
C133        C  0.01415779  0.16694828  0.86726114    -0.10900
C134        C  0.04599477  0.16874295  0.88440217     0.03800
C135        C  0.04388835  0.13933551  0.91069692    -0.10300
H136        H  0.45150248  0.08338764  0.91107793     0.09400
H137        H  0.01591280  0.18991114  0.84705975     0.06900
H138        H  0.06881574  0.14141194  0.92434043     0.06800
C139        C  0.34353110  0.18007001  0.72844156     0.46100
H140        H  0.34308663  0.18371770  0.68860378    -0.02900
C141        C  0.34379459  0.17072177  0.82176501     0.46200
H142        H  0.34407655  0.16656350  0.86141542    -0.02900
C143        C  0.35738529  0.21580079  0.75782360    -0.16600
C144        C  0.30577702  0.15419058  0.74985985    -0.16300
C145        C  0.36758818  0.16391308  0.74400092    -0.16700
C146        C  0.35789203  0.21079589  0.80732894    -0.16700
C147        C  0.30577456  0.14920147  0.79913391    -0.16300
C148        C  0.36789029  0.15927810  0.79345782    -0.16600
C149        C  0.18258503  0.34238443  0.84065784     0.46100
H150        H  0.18529340  0.33994097  0.88031071    -0.02900
C151        C  0.17692906  0.34784535  0.74720622     0.46200
H152        H  0.17332906  0.35023953  0.70787911    -0.02900
C153        C  0.21915724  0.36024219  0.81351785    -0.16600
C154        C  0.15975356  0.30533368  0.81581483    -0.16300
C155        C  0.16412224  0.36456063  0.82664583    -0.16700
C156        C  0.21649991  0.36366739  0.76396846    -0.16700
C157        C  0.15701122  0.30824139  0.76638082    -0.16300
C158        C  0.16203541  0.36817707  0.77723549    -0.16600
C159        C  0.11204405  0.00959413  0.63923288     0.03800
C160        C  0.14604420  0.04230885  0.64068225    -0.12400
C161        C  0.17604326  0.04315598  0.66322910     0.01300
C162        C  0.17163294  0.01076182  0.68348417    -0.10900
C163        C  0.13811604  0.47837062  0.68559905     0.03800
C164        C  0.10808648  0.47768560  0.66248989    -0.10300
H165        H  0.14939198  0.06683379  0.62320162     0.09400
H166        H  0.19486949  0.01099300  0.69973142     0.06900
H167        H  0.08182911  0.45298547  0.66320049     0.06800
C168        C  0.40622383  0.41204574  0.63917676     0.03800
C169        C  0.40516997  0.37925780  0.65411254    -0.12400
C170        C  0.37291677  0.35010457  0.67366491     0.01300
C171        C  0.34160954  0.35358543  0.67461047    -0.10900
C172        C  0.34332197  0.38698986  0.66512776     0.03800
C173        C  0.37554471  0.41618393  0.64737688    -0.10300
H174        H  0.42931356  0.37667934  0.65105250     0.09400
H175        H  0.31579582  0.33070685  0.68570082     0.06900
H176        H  0.37622746  0.44170318  0.63898156     0.06800
C177        C  0.40765223  0.39965577  0.93749490     0.03800
C178        C  0.41021435  0.36756558  0.93183611    -0.12400
C179        C  0.38033674  0.33504064  0.91526528     0.01300
C180        C  0.34760790  0.33444862  0.90621304    -0.10900
C181        C  0.34535932  0.36669999  0.90592770     0.03800
C182        C  0.37575534  0.39938339  0.92217516    -0.10300
H183        H  0.43520287  0.36766444  0.94050773     0.09400
H184        H  0.32428755  0.30864201  0.89606412     0.06900
H185        H  0.37528666  0.42485977  0.92194930     0.06800
C186        C  0.11397003  0.00938518  0.93115800     0.03800
C187        C  0.14572612  0.04121221  0.91522533    -0.12400
C188        C  0.17459891  0.03834878  0.89369752     0.01300
C189        C  0.17112888  0.00351965  0.88905404    -0.10900
C190        C  0.14025202  0.47208740  0.90558324     0.03800
C191        C  0.11160838  0.47498228  0.92564888    -0.10300
H192        H  0.14821326  0.06790864  0.92045122     0.09400
H193        H  0.19254697  0.00065115  0.87172296     0.06900
H194        H  0.08791731  0.45025875  0.93832422     0.06800
C195        C  0.25158105  0.36282559  0.83736873    -0.04800
C196        C  0.26961109  0.38829340  0.87449546    -0.32200
C197        C  0.29940223  0.38949716  0.89845240     0.37000
C198        C  0.31251809  0.36580576  0.88395093    -0.05200
C199        C  0.29370128  0.34028111  0.84674114    -0.32100
C200        C  0.26347820  0.33833487  0.82416016     0.36900
H201        H  0.26080485  0.40744852  0.88486684     0.17300
O202        O  0.31454788  0.41316998  0.93667436    -0.59600
H203        H  0.30206900  0.32126267  0.83467849     0.17300
O204        O  0.24489941  0.31150720  0.79021247    -0.59700
H205        H  0.26024313  0.31958271  0.76059030     0.44300
H206        H  0.30140876  0.39886499  0.96580845     0.44300
C207        C  0.24831884  0.37789975  0.72966349    -0.04800
C208        C  0.28265455  0.40590892  0.74497393    -0.32200
C209        C  0.31441163  0.41206127  0.72098519     0.37000
C210        C  0.31202130  0.39122675  0.67974515    -0.05200
C211        C  0.27782340  0.36755369  0.66009712    -0.32100
C212        C  0.24608982  0.36119984  0.68417701     0.36900
H213        H  0.28516156  0.42110383  0.77787822     0.17300
O214        O  0.34758966  0.43589222  0.74075670    -0.59600
H215        H  0.27566884  0.35169695  0.62793796     0.17300
O216        O  0.21346427  0.33603958  0.66477501    -0.59700
H217        H  0.20894722  0.34903369  0.63803472     0.44300
H218        H  0.35229181  0.42125188  0.76488983     0.44300
C219        C  0.15051270  0.38147371  0.86255849    -0.04800
C220        C  0.11752818  0.38078594  0.85329616    -0.32200
C221        C  0.11178039  0.40871651  0.87099593     0.37000
C222        C  0.13841771  0.43631054  0.90033927    -0.05200
C223        C  0.16745085  0.43238935  0.91747011    -0.32100
C224        C  0.17348286  0.40487399  0.89903345     0.36900
H225        H  0.09858123  0.36160826  0.82711050     0.17300
O226        O  0.08241261  0.41114135  0.85489090    -0.59600
H227        H  0.18752963  0.45293051  0.94134739     0.17300
O228        O  0.20468134  0.40484460  0.91156706    -0.59700
H229        H  0.19872705  0.39064683  0.94217492     0.44300
H230        H  0.09027860  0.42452711  0.82363219     0.44300
C231        C  0.13712932  0.44707273  0.71323677    -0.04800
C232        C  0.16077647  0.45584829  0.75319022    -0.32200
C233        C  0.17123269  0.43136088  0.77046000     0.37000
C234        C  0.15299623  0.39486285  0.75471022    -0.05200
C235        C  0.12661173  0.38439634  0.71809294    -0.32100
C236        C  0.11912093  0.41042378  0.69656485     0.36900
H237        H  0.17400952  0.48316595  0.76861229     0.17300
O238        O  0.20157166  0.44386996  0.79926538    -0.59600
H239        H  0.11262133  0.35632655  0.70527671     0.17300
O240        O  0.09597171  0.40020654  0.65775318    -0.59700
H241        H  0.07119375  0.38739447  0.67204737     0.44300
H242        H  0.19894758  0.45853688  0.82553616     0.44300
C243        C  0.36283801  0.25046823  0.73531731    -0.04800
C244        C  0.34498465  0.26769707  0.75588143    -0.32200
C245        C  0.34992824  0.30076615  0.73777392     0.37000
C246        C  0.37112826  0.31660211  0.69566693    -0.05200
C247        C  0.38915332  0.29932726  0.67468586    -0.32100
C248        C  0.38519528  0.26652454  0.69434371     0.36900
H249        H  0.32725684  0.25570932  0.78696122     0.17300
O250        O  0.33475502  0.31808655  0.76278072    -0.59600
H251        H  0.40587633  0.31087613  0.64268094     0.17300
O252        O  0.40414447  0.25108079  0.67428249    -0.59700
H253        H  0.39065793  0.23857786  0.64442925     0.44300
H254        H  0.30810497  0.30189296  0.75935306     0.44300
C255        C  0.36964144  0.24069503  0.84415445    -0.04800
C256        C  0.40092216  0.27476823  0.83580939    -0.32200
C257        C  0.40740902  0.30570990  0.86286358     0.37000
C258        C  0.38309238  0.30252471  0.90008054    -0.05200
C259        C  0.35496944  0.26744531  0.91288803    -0.32100
C260        C  0.34784458  0.23671650  0.88498022     0.36900
H261        H  0.41863680  0.27808114  0.80546075     0.17300
O262        O  0.43461060  0.33948175  0.84835123    -0.59600
H263        H  0.33608582  0.26445229  0.94153869     0.17300
O264        O  0.31689241  0.20411500  0.89431043    -0.59700
H265        H  0.32256433  0.19404760  0.92341756     0.44300
H266        H  0.45683253  0.34265889  0.86464775     0.44300
C267        C  0.21188730  0.07726902  0.67034747    -0.04800
C268        C  0.24315436  0.07360893  0.67314198    -0.32200
C269        C  0.27251616  0.09753844  0.70136409     0.37000
C270        C  0.27494811  0.13004482  0.71833013    -0.05200
C271        C  0.24696869  0.13765737  0.70772301    -0.32100
C272        C  0.21461307  0.11065302  0.68613013     0.36900
H273        H  0.24296364  0.04937212  0.65923491     0.17300
O274        O  0.29678918  0.08704108  0.71635373    -0.59600
H275        H  0.24884196  0.16302489  0.72012884     0.17300
O276        O  0.18535466  0.11621439  0.68404562    -0.59700
H277        H  0.17236681  0.10684095  0.71531060     0.44300
H278        H  0.28684319  0.07380553  0.74735190     0.44300
C279        C  0.20880937  0.07059345  0.87547470    -0.04800
C280        C  0.24219260  0.07131578  0.88202171    -0.32200
C281        C  0.27382329  0.09693073  0.85801402     0.37000
C282        C  0.27304499  0.12346266  0.82786463    -0.05200
C283        C  0.24062737  0.12490442  0.82460501    -0.32100
C284        C  0.20849190  0.09826588  0.84695582     0.36900
H285        H  0.24355104  0.05086921  0.90441025     0.17300
O286        O  0.30464881  0.09406544  0.86153763    -0.59600
H287        H  0.23993781  0.14628029  0.80369761     0.17300
O288        O  0.17675551  0.09863144  0.83866094    -0.59700
H289        H  0.16606013  0.08311736  0.80948670     0.44300
H290        H  0.31460929  0.10356197  0.89423766     0.44300
C291        C  0.44736866  0.13761647  0.86031538    -0.04800
C292        C  0.44325079  0.16720492  0.87563879    -0.32200
C293        C  0.41678826  0.17369096  0.85535549     0.37000
C294        C  0.39369169  0.15040539  0.81873268    -0.05200
C295        C  0.39666457  0.11974568  0.80477964    -0.32100
C296        C  0.42339105  0.11332212  0.82523781     0.36900
H297        H  0.46178669  0.18639003  0.90218164     0.17300
O298        O  0.41590409  0.20468850  0.86876181    -0.59600
H299        H  0.37890448  0.10137273  0.77700051     0.17300
O300        O  0.42692420  0.08431232  0.80918854    -0.59700
H301        H  0.44272014  0.09349438  0.78003584     0.44300
H302        H  0.40450484  0.19933862  0.90141727     0.44300
C303        C  0.13771931  0.27064878  0.84359031    -0.04800
C304        C  0.13493911  0.23769362  0.82678070    -0.32200
C305        C  0.10636693  0.20379130  0.84227164     0.37000
C306        C  0.08097711  0.20264355  0.87624118    -0.05200
C307        C  0.08629420  0.23534330  0.89723359    -0.32100
C308        C  0.11454837  0.26920472  0.88153155     0.36900
H309        H  0.15306034  0.23825590  0.79851837     0.17300
O310        O  0.10183720  0.17216671  0.82128292    -0.59600
H311        H  0.06688727  0.23471551  0.92352678     0.17300
O312        O  0.11614925  0.30050330  0.89917246    -0.59700
H313        H  0.12865986  0.30501385  0.93088656     0.44300
H314        H  0.08785511  0.16919610  0.79117513     0.44300
C315        C  0.45600285  0.16565355  0.66321935    -0.04800
C316        C  0.41994753  0.13887647  0.65257478    -0.32200
C317        C  0.39035455  0.13846658  0.67654543     0.37000
C318        C  0.39637782  0.16524546  0.71172874    -0.05200
C319        C  0.43157286  0.19358240  0.71936752    -0.32100
C320        C  0.46105218  0.19439128  0.69575566     0.36900
H321        H  0.41437410  0.11751201  0.62639593     0.17300
O322        O  0.35591808  0.11137628  0.66575709    -0.59600
H323        H  0.43650465  0.21485816  0.74558901     0.17300
O324        O  0.49456526  0.22260035  0.70797856    -0.59700
H325        H  0.49668367  0.24453488  0.69143118     0.44300
H326        H  0.35414517  0.08854201  0.67879029     0.44300
C327        C  0.08157185  0.21640594  0.68162103    -0.04800
C328        C  0.07032928  0.22863445  0.72209555    -0.32200
C329        C  0.09421736  0.26028166  0.74673615     0.37000
C330        C  0.13136597  0.27733322  0.73592419    -0.05200
C331        C  0.14372479  0.26298585  0.69892333    -0.32100
C332        C  0.11882419  0.23332393  0.67050726     0.36900
H333        H  0.04243207  0.21387670  0.73407553     0.17300
O334        O  0.08114829  0.27507745  0.78052620    -0.59600
H335        H  0.17246958  0.27442284  0.69233331     0.17300
O336        O  0.13108090  0.22118656  0.63255760    -0.59700
H337        H  0.12973874  0.23455860  0.60374962     0.44300
H338        H  0.06614746  0.25513709  0.80363429     0.44300
C339        C  0.12582562  0.35860309  0.22724769    -0.04800
C340        C  0.09180531  0.34963304  0.24680830    -0.32200
C341        C  0.06929998  0.36019541  0.22431095     0.37000
C342        C  0.07649570  0.37353130  0.17652701    -0.05200
C343        C  0.10830647  0.37888762  0.15361177    -0.32100
C344        C  0.13310735  0.37167643  0.17863340     0.36900
H345        H  0.08243734  0.33491184  0.28055183     0.15700
O346        O  0.03922788  0.35601374  0.24887202    -0.59600
H347        H  0.11344351  0.38764671  0.11608128     0.17300
O348        O  0.16342659  0.37649037  0.15441493    -0.59700
H349        H  0.15470172  0.35561061  0.13145639     0.44300
H350        H  0.04699290  0.38008571  0.26440334     0.44300
C351        C  0.07631107  0.38041526  0.37971333    -0.04800
C352        C  0.10338034  0.40773535  0.35038297    -0.32200
C353        C  0.13129521  0.40278896  0.33005345     0.37000
C354        C  0.13222230  0.37020736  0.33916297    -0.05200
C355        C  0.10779865  0.34523406  0.37309889    -0.32100
C356        C  0.07997851  0.35000245  0.39304685     0.36900
H357        H  0.10146850  0.43166439  0.34049171     0.17300
O358        O  0.15655608  0.42898525  0.29976850    -0.59600
H359        H  0.10848125  0.32039496  0.38129166     0.17300
O360        O  0.05504797  0.32350399  0.42326289    -0.59700
H361        H  0.06430825  0.33198418  0.45651270     0.44300
H362        H  0.14305164  0.42850929  0.27019709     0.44300
C363        C  0.31367271  0.43727699  0.18729060    -0.04800
C364        C  0.28175644  0.43884489  0.17893128    -0.32200
C365        C  0.24882057  0.41352611  0.20010759     0.37000
C366        C  0.24647767  0.38414805  0.22741771    -0.05200
C367        C  0.27726112  0.37968905  0.23056631    -0.32100
C368        C  0.31096037  0.40639136  0.21129125     0.36900
H369        H  0.28322107  0.46233804  0.16058443     0.17300
O370        O  0.22114388  0.42153153  0.20105974    -0.59600
H371        H  0.27597034  0.35746470  0.25194067     0.17300
O372        O  0.34141392  0.40361547  0.21969488    -0.59700
H373        H  0.35019522  0.41477956  0.25209993     0.44300
H374        H  0.22525868  0.43667387  0.23054933     0.44300
C375        C  0.31323568  0.44239460  0.39104073    -0.04800
C376        C  0.28639667  0.41099964  0.41418956    -0.32200
C377        C  0.25526997  0.38535634  0.38848602     0.37000
C378        C  0.24943601  0.39271719  0.33986201    -0.05200
C379        C  0.27605804  0.42578194  0.31917662    -0.32100
C380        C  0.30879738  0.44813939  0.34211257     0.36900
H381        H  0.28914202  0.40668716  0.45232388     0.17300
O382        O  0.23014490  0.35448514  0.41231142    -0.59600
H383        H  0.27174202  0.43570694  0.28552078     0.17300
O384        O  0.33536347  0.47775457  0.31755550    -0.59700
H385        H  0.35177861  0.46934474  0.30423371     0.44300
H386        H  0.24350641  0.34219930  0.42419402     0.44300
C387        C  0.14693105  0.21339415  0.40046476    -0.04800
C388        C  0.11648838  0.21527532  0.38394198    -0.32200
C389        C  0.12099372  0.24704541  0.36086372     0.37000
C390        C  0.15620486  0.27569715  0.35037984    -0.05200
C391        C  0.18602027  0.27544105  0.37125160    -0.32100
C392        C  0.18138209  0.24555605  0.39880443     0.36900
H393        H  0.08952725  0.19156296  0.38616144     0.17300
O394        O  0.09109917  0.24919655  0.34670542    -0.59600
H395        H  0.21319554  0.29765369  0.36416746     0.17300
O396        O  0.21071855  0.24714465  0.42245249    -0.59700
H397        H  0.23032475  0.25443896  0.39790744     0.44300
H398        H  0.08048836  0.25258966  0.37708348     0.44300
C399        C  0.44109162  0.31488353  0.37562631    -0.04800
C400        C  0.41654645  0.31635836  0.34281716    -0.32200
C401        C  0.38837189  0.28394631  0.32205394     0.37000
C402        C  0.38454025  0.24956760  0.33445950    -0.05200
C403        C  0.40615931  0.24826755  0.37188274    -0.32100
C404        C  0.43456667  0.28035050  0.39178227     0.36900
H405        H  0.42045450  0.34268927  0.33119361     0.17300
O406        O  0.36447202  0.28578499  0.29009755    -0.59600
H407        H  0.40267015  0.22234495  0.38344435     0.17300
O408        O  0.45715274  0.27765015  0.42505274    -0.59700
H409        H  0.44819510  0.28058011  0.45711610     0.44300
H410        H  0.37937316  0.30518983  0.26627547     0.44300
C411        C  0.39522297  0.24619746  0.22725453    -0.04800
C412        C  0.38589158  0.26437856  0.19228496    -0.32200
C413        C  0.41296364  0.29513327  0.16743693     0.37000
C414        C  0.45001227  0.30792497  0.17757693    -0.05200
C415        C  0.45855242  0.28906698  0.21297270    -0.32100
C416        C  0.43182681  0.25844758  0.23690571     0.36900
H417        H  0.35764871  0.25555781  0.18528883     0.17300
O418        O  0.40288118  0.31145353  0.13241480    -0.59600
H419        H  0.48625523  0.29783608  0.22303693     0.17300
O420        O  0.44170196  0.23999320  0.26908664    -0.59700
H421        H  0.45516849  0.25766323  0.29541635     0.44300
H422        H  0.39148733  0.32377396  0.15019853     0.44300
C423        C  0.19911649  0.13565098  0.35770083    -0.04800
C424        C  0.21925368  0.12128063  0.37984035    -0.32200
C425        C  0.25290482  0.12825074  0.36015848     0.37000
C426        C  0.26742917  0.15108581  0.31917913    -0.05200
C427        C  0.24690089  0.16490995  0.29716445    -0.32100
C428        C  0.21236284  0.15558034  0.31416026     0.36900
H429        H  0.20963544  0.10590687  0.41328979     0.17300
O430        O  0.27157231  0.11316597  0.38165379    -0.59600
H431        H  0.25741036  0.18271726  0.26586856     0.17300
O432        O  0.19162072  0.16659976  0.28859841    -0.59700
H433        H  0.20593152  0.19374890  0.28701688     0.44300
H434        H  0.26280607  0.08920150  0.36527451     0.44300
C435        C  0.35881349  0.12725617  0.34395345    -0.04800
C436        C  0.33412129  0.09066075  0.33414478    -0.32200
C437        C  0.33698556  0.06243589  0.35627618     0.37000
C438        C  0.36413952  0.07014124  0.39204383    -0.05200
C439        C  0.38791871  0.10715966  0.40362192    -0.32100
C440        C  0.38581634  0.13555186  0.37933664     0.36900
H441        H  0.31361179  0.08381372  0.30641481     0.17300
O442        O  0.31504129  0.02773488  0.33879600    -0.59600
H443        H  0.40883211  0.11433575  0.43070897     0.17300
O444        O  0.41111356  0.17111572  0.38934966    -0.59700
H445        H  0.43351048  0.17562302  0.37200542     0.44300
H446        H  0.28985818  0.02123365  0.34800834     0.44300
C447        C  0.37257295  0.12917715  0.23722526    -0.04800
C448        C  0.34872254  0.10507494  0.20223010    -0.32200
C449        C  0.35337567  0.07669008  0.18360240     0.37000
C450        C  0.38234880  0.07196690  0.19975667    -0.05200
C451        C  0.40781745  0.09760237  0.23210937    -0.32100
C452        C  0.40327629  0.12633474  0.25045900     0.36900
H453        H  0.32524037  0.10701189  0.19096944     0.17300
O454        O  0.32920799  0.05329066  0.14983981    -0.59600
H455        H  0.43041081  0.09452485  0.24454149     0.17300
O456        O  0.42843217  0.15085824  0.28220280    -0.59700
H457        H  0.44513429  0.17216083  0.26203155     0.44300
H458        H  0.30653105  0.03742282  0.16811191     0.44300
C459        C  0.21144033  0.12941503  0.16977429    -0.04800
C460        C  0.24462805  0.15776974  0.15206236    -0.32200
C461        C  0.27763443  0.16460665  0.17246926     0.37000
C462        C  0.27763432  0.14321861  0.21171947    -0.05200
C463        C  0.24515880  0.11063546  0.22253852    -0.32100
C464        C  0.21194216  0.10412816  0.20270071     0.36900
H465        H  0.24472672  0.17699938  0.12582864     0.17300
O466        O  0.30891935  0.19507339  0.15803973    -0.59600
H467        H  0.24483336  0.09283890  0.25115819     0.17300
O468        O  0.18006823  0.07561803  0.22003136    -0.59700
H469        H  0.17409111  0.08534019  0.24938008     0.44300
H470        H  0.31687129  0.18744616  0.12847289     0.44300
C471        C  0.15219574  0.20542250  0.19374097    -0.04800
C472        C  0.12138346  0.20506483  0.21390920    -0.32200
C473        C  0.12383233  0.23645896  0.23633533     0.37000
C474        C  0.15783606  0.26853618  0.24086266    -0.05200
C475        C  0.18814280  0.26974888  0.21850233    -0.32100
C476        C  0.18557295  0.23907267  0.19440142     0.36900
H477        H  0.09518944  0.18028287  0.21284708     0.17300
O478        O  0.09275016  0.23652462  0.25064939    -0.59600
H479        H  0.21412939  0.29486317  0.21944766     0.17300
O480        O  0.21536212  0.24302295  0.16919908    -0.59700
H481        H  0.23473341  0.24945903  0.19371462     0.44300
H482        H  0.07742789  0.21299841  0.26773752     0.44300
C483        C  0.11587195  0.60957142  0.13677973     0.03800
C484        C  0.11776317  0.64259024  0.15216180    -0.12400
C485        C  0.14964386  0.67060590  0.17428400     0.01300
C486        C  0.17928493  0.66461237  0.17972841    -0.10900
C487        C  0.17827876  0.63255248  0.16329411     0.03800
C488        C  0.14629143  0.60477226  0.14247478    -0.10300
H489        H  0.09467749  0.64651852  0.14600271     0.09400
H490        H  0.20350579  0.68455105  0.19825858     0.06900
H491        H  0.14539895  0.57995582  0.12951347     0.06800
C492        C  0.34835644  0.67604993  0.23308314     0.46100
H493        H  0.35289021  0.67568926  0.19342766    -0.02900
C494        C  0.33904011  0.67719547  0.32651684     0.46200
H495        H  0.33497650  0.67764419  0.36629086    -0.02900
C496        C  0.36282888  0.65478524  0.26204021    -0.16600
C497        C  0.36712928  0.71475918  0.25499003    -0.16300
C498        C  0.30819042  0.65861098  0.24772219    -0.16700
C499        C  0.35792615  0.65518008  0.31153937    -0.16700
C500        C  0.36259217  0.71573298  0.30439252    -0.16300
C501        C  0.30320053  0.65998266  0.29712402    -0.16600
C502        C  0.17639491  0.83853346  0.24000683     0.46100
H503        H  0.17613113  0.83498671  0.20017220    -0.02900
C504        C  0.17792501  0.84520489  0.33392123     0.46200
H505        H  0.17739551  0.84762115  0.37387222    -0.02900
C506        C  0.15239894  0.85419184  0.25893883    -0.16600
C507        C  0.16266926  0.80198164  0.26672945    -0.16300
C508        C  0.21478231  0.86372712  0.26049989    -0.16700
C509        C  0.15430098  0.85859432  0.30907934    -0.16700
C510        C  0.16291323  0.80551822  0.31634512    -0.16300
C511        C  0.21591365  0.86751211  0.31065660    -0.16600
C512        C  0.01320913  0.90577177  0.13256462     0.03800
C513        C  0.04655485  0.90658065  0.13923307    -0.12400
C514        C  0.04662263  0.87402653  0.14976161     0.01300
C515        C  0.01392888  0.84097629  0.14868414    -0.10900
C516        C  0.48082378  0.84063231  0.15356023     0.03800
C517        C  0.48036763  0.87331946  0.14303658    -0.10300
H518        H  0.07198069  0.93220135  0.13678384     0.09400
H519        H  0.01494943  0.81589963  0.15354300     0.06900
H520        H  0.45520025  0.87404554  0.14324395     0.06800
C521        C  0.40984128  0.50620870  0.14380807     0.03800
C522        C  0.41225896  0.53902302  0.16066681    -0.12400
C523        C  0.38326368  0.53816545  0.18663745     0.01300
C524        C  0.35275794  0.50436217  0.19734113    -0.10900
C525        C  0.34914190  0.97140647  0.17952406     0.03800
C526        C  0.37807136  0.97240625  0.15294446    -0.10300
H527        H  0.43588288  0.56511330  0.15185455     0.09400
H528        H  0.33087421  0.50387958  0.21852648     0.06900
H529        H  0.37552124  0.94728961  0.13826125     0.06800
C530        C  0.00880369  0.90926922  0.42632830     0.03800
C531        C  0.04193834  0.91044889  0.41509734    -0.12400
C532        C  0.04204444  0.88087845  0.39105283     0.01300
C533        C  0.00871592  0.85048644  0.37773872    -0.10900
C534        C  0.47547538  0.84866862  0.38879709     0.03800
C535        C  0.47566190  0.87839299  0.41274534    -0.10300
H536        H  0.06744283  0.93379895  0.42624613     0.09400
H537        H  0.00861593  0.82789215  0.35845932     0.06900
H538        H  0.45012939  0.87700319  0.42215983     0.06800
C539        C  0.40544674  0.51178464  0.43703719     0.03800
C540        C  0.40263792  0.54342519  0.42716955    -0.12400
C541        C  0.36849739  0.53985776  0.41469178     0.01300
C542        C  0.33783465  0.50506395  0.41905670    -0.10900
C543        C  0.34145027  0.97382295  0.41819903     0.03800
C544        C  0.37517093  0.97697269  0.42879402    -0.10300
H545        H  0.42679900  0.57013705  0.42876399     0.09400
H546        H  0.31087163  0.50153422  0.41515197     0.06900
H547        H  0.37781775  0.95263066  0.43064481     0.06800
C548        C  0.11206413  0.61213071  0.42907708     0.03800
C549        C  0.11455026  0.64690306  0.42911396    -0.12400
C550        C  0.14447255  0.67704351  0.40755617     0.01300
C551        C  0.17149032  0.67171634  0.38642815    -0.10900
C552        C  0.16916101  0.63742270  0.38397106     0.03800
C553        C  0.13940720  0.60733465  0.40623593    -0.10300
H554        H  0.09343676  0.65045532  0.44631683     0.09400
H555        H  0.19451905  0.69462910  0.36958877     0.06900
H556        H  0.13762278  0.58070406  0.40611531     0.06800
Zn557      Zn  0.00942506  0.96713620  0.55897949     1.49700
Zn558      Zn  0.46914166  0.51529814  0.56162723     1.49400
Zn559      Zn  0.05438468  0.55494631  0.55914383     1.49100
Zn560      Zn  0.00890040  0.51185095  0.46257707     1.49500
O561        O  0.01046642  0.51210318  0.53488280    -1.83500
O562        O  0.46374667  0.93601066  0.59888692    -0.74100
O563        O  0.48343388  0.56232945  0.59873179    -0.73900
O564        O  0.08444739  0.53980023  0.59942134    -0.73400
O565        O  0.43794256  0.97094585  0.60265806    -0.74100
O566        O  0.05394001  0.97895422  0.60008950    -0.73700
O567        O  0.04359314  0.59023929  0.59689265    -0.74300
O568        O  0.05504656  0.55663159  0.43602003    -0.73700
O569        O  0.43718237  0.51505041  0.50805525    -0.74400
O570        O  0.08557219  0.58420198  0.50326254    -0.73800
O571        O  0.46286639  0.51284119  0.43843712    -0.74300
O572        O  0.00804835  0.96550734  0.43589513    -0.74200
O573        O  0.00937132  0.93602742  0.50231396    -0.74000
C574        C  0.43802098  0.94138944  0.61295935     0.77800
C575        C  0.01424538  0.58995213  0.60842369     0.78300
C576        C  0.08160674  0.50929506  0.61203534     0.77200
C577        C  0.08274951  0.58237725  0.45729884     0.77600
C578        C  0.43736709  0.51407023  0.46197936     0.78800
C579        C  0.00871020  0.93854363  0.45628170     0.77800
Zn580      Zn  0.05355829  0.55312974  0.00902510     1.49700
Zn581      Zn  0.46573108  0.50741726  0.00949167     1.49400
Zn582      Zn  0.01160941  0.96661222  0.00831702     1.49100
Zn583      Zn  0.01195918  0.50868076  0.10591349     1.49500
O584        O  0.01044879  0.50917823  0.03389586    -1.83500
O585        O  0.03846519  0.58210401  0.96717723    -0.74100
O586        O  0.43351865  0.95977775  0.97249400    -0.73900
O587        O  0.05585825  0.98099519  0.96820838    -0.73400
O588        O  0.47803908  0.55155469  0.96538624    -0.74100
O589        O  0.08718370  0.54162410  0.96943822    -0.73700
O590        O  0.46703596  0.93267595  0.97079367    -0.74300
O591        O  0.01159799  0.96212535  0.13088549    -0.73700
O592        O  0.43563473  0.50754740  0.06701723    -0.74400
O593        O  0.01344142  0.93590586  0.06156520    -0.73800
O594        O  0.46671139  0.50848475  0.13288275    -0.74300
O595        O  0.05858657  0.55406088  0.13101055    -0.74200
O596        O  0.08460157  0.58525486  0.06347289    -0.74000
C597        C  0.00848327  0.57886586  0.95261456     0.77800
C598        C  0.43778529  0.93272214  0.96072432     0.78300
C599        C  0.08401622  0.51101583  0.95693629     0.77200
C600        C  0.01266728  0.93636812  0.10753952     0.77600
C601        C  0.43903573  0.50755351  0.11300414     0.78800
C602        C  0.08423607  0.58174597  0.10932243     0.77800
C603        C  0.01615271  0.62359158  0.62945228     0.03800
C604        C  0.48447780  0.62680376  0.63509842    -0.12400
C605        C  0.48740100  0.66139553  0.64467660     0.01300
C606        C  0.02223083  0.69189052  0.64273445    -0.10900
C607        C  0.05252485  0.68780846  0.65135272     0.03800
C608        C  0.05003943  0.65384625  0.64211899    -0.10300
H609        H  0.45808526  0.60246635  0.63240132     0.09400
H610        H  0.02606101  0.71926164  0.64267733     0.06900
H611        H  0.07390453  0.65083728  0.64566574     0.06800
C612        C  0.00986291  0.60823438  0.92106085     0.03800
C613        C  0.47790811  0.60672650  0.90307451    -0.12400
C614        C  0.48007623  0.63627726  0.87633653     0.01300
C615        C  0.01415780  0.66694825  0.86726115    -0.10900
C616        C  0.04599476  0.66874291  0.88440216     0.03800
C617        C  0.04388832  0.63933547  0.91069694    -0.10300
H618        H  0.45150242  0.58338763  0.91107794     0.09400
H619        H  0.01591282  0.68991111  0.84705976     0.06900
H620        H  0.06881570  0.64141189  0.92434046     0.06800
C621        C  0.34353114  0.68007007  0.72844156     0.46100
H622        H  0.34308667  0.68371780  0.68860378    -0.02900
C623        C  0.34379468  0.67072181  0.82176500     0.46200
H624        H  0.34407668  0.66656354  0.86141541    -0.02900
C625        C  0.35738535  0.71580083  0.75782360    -0.16600
C626        C  0.30577705  0.65419068  0.74985987    -0.16300
C627        C  0.36758821  0.66391312  0.74400088    -0.16700
C628        C  0.35789209  0.71079592  0.80732894    -0.16700
C629        C  0.30577463  0.64920152  0.79913393    -0.16300
C630        C  0.36789039  0.65927817  0.79345778    -0.16600
C631        C  0.18258499  0.84238442  0.84065782     0.46100
H632        H  0.18529332  0.83994096  0.88031070    -0.02900
C633        C  0.17692907  0.84784535  0.74720619     0.46200
H634        H  0.17332910  0.85023954  0.70787908    -0.02900
C635        C  0.21915720  0.86024212  0.81351785    -0.16600
C636        C  0.15975348  0.80533367  0.81581483    -0.16300
C637        C  0.16412227  0.86456067  0.82664580    -0.16700
C638        C  0.21649990  0.86366733  0.76396845    -0.16700
C639        C  0.15701116  0.80824138  0.76638080    -0.16300
C640        C  0.16203545  0.86817713  0.77723546    -0.16600
C641        C  0.11204405  0.50959415  0.63923293     0.03800
C642        C  0.14604422  0.54230888  0.64068229    -0.12400
C643        C  0.17604331  0.54315600  0.66322909     0.01300
C644        C  0.17163301  0.51076184  0.68348416    -0.10900
C645        C  0.13811599  0.97837061  0.68559908     0.03800
C646        C  0.10808645  0.97768558  0.66248989    -0.10300
H647        H  0.14939198  0.56683382  0.62320164     0.09400
H648        H  0.19486957  0.51099303  0.69973140     0.06900
H649        H  0.08182909  0.95298546  0.66320052     0.06800
C650        C  0.40622389  0.91204572  0.63917674     0.03800
C651        C  0.40517005  0.87925779  0.65411251    -0.12400
C652        C  0.37291686  0.85010456  0.67366494     0.01300
C653        C  0.34160960  0.85358541  0.67461050    -0.10900
C654        C  0.34332202  0.88698984  0.66512777     0.03800
C655        C  0.37554476  0.91618391  0.64737688    -0.10300
H656        H  0.42931364  0.87667933  0.65105247     0.09400
H657        H  0.31579589  0.83070682  0.68570089     0.06900
H658        H  0.37622751  0.94170316  0.63898158     0.06800
C659        C  0.40765226  0.89965575  0.93749490     0.03800
C660        C  0.41021434  0.86756555  0.93183615    -0.12400
C661        C  0.38033673  0.83504063  0.91526529     0.01300
C662        C  0.34760789  0.83444863  0.90621300    -0.10900
C663        C  0.34535933  0.86670000  0.90592768     0.03800
C664        C  0.37575537  0.89938338  0.92217512    -0.10300
H665        H  0.43520285  0.86766439  0.94050780     0.09400
H666        H  0.32428755  0.80864204  0.89606403     0.06900
H667        H  0.37528668  0.92485975  0.92194922     0.06800
C668        C  0.11397000  0.50938518  0.93115799     0.03800
C669        C  0.14572608  0.54121222  0.91522530    -0.12400
C670        C  0.17459886  0.53834880  0.89369749     0.01300
C671        C  0.17112884  0.50351967  0.88905403    -0.10900
C672        C  0.14025204  0.97208740  0.90558323     0.03800
C673        C  0.11160843  0.97498230  0.92564885    -0.10300
H674        H  0.14821320  0.56790864  0.92045118     0.09400
H675        H  0.19254694  0.50065120  0.87172295     0.06900
H676        H  0.08791735  0.95025877  0.93832416     0.06800
C677        C  0.25158099  0.86282555  0.83736877    -0.04800
C678        C  0.26961102  0.88829336  0.87449549    -0.32200
C679        C  0.29940220  0.88949717  0.89845241     0.37000
C680        C  0.31251810  0.86580580  0.88395094    -0.05200
C681        C  0.29370128  0.84028114  0.84674118    -0.32100
C682        C  0.26347820  0.83833488  0.82416022     0.36900
H683        H  0.26080476  0.90744848  0.88486685     0.17300
O684        O  0.31454782  0.91316997  0.93667439    -0.59600
H685        H  0.30206900  0.82126270  0.83467851     0.17300
O686        O  0.24489957  0.81150732  0.79021232    -0.59700
H687        H  0.26024331  0.81958293  0.76059041     0.44300
H688        H  0.30140867  0.89886495  0.96580845     0.44300
C689        C  0.24831887  0.87789973  0.72966350    -0.04800
C690        C  0.28265458  0.90590888  0.74497397    -0.32200
C691        C  0.31441169  0.91206126  0.72098519     0.37000
C692        C  0.31202136  0.89122675  0.67974515    -0.05200
C693        C  0.27782346  0.86755371  0.66009711    -0.32100
C694        C  0.24608986  0.86119984  0.68417699     0.36900
H695        H  0.28516159  0.92110374  0.77787831     0.17300
O696        O  0.34758973  0.93589214  0.74075674    -0.59600
H697        H  0.27566891  0.85169696  0.62793796     0.17300
O698        O  0.21346434  0.83603951  0.66477505    -0.59700
H699        H  0.20894712  0.84903371  0.63803475     0.44300
H700        H  0.35229177  0.92125184  0.76488988     0.44300
C701        C  0.15051267  0.88147370  0.86255849    -0.04800
C702        C  0.11752814  0.88078591  0.85329618    -0.32200
C703        C  0.11178034  0.90871648  0.87099595     0.37000
C704        C  0.13841768  0.93631051  0.90033927    -0.05200
C705        C  0.16745081  0.93238929  0.91747014    -0.32100
C706        C  0.17348283  0.90487394  0.89903347     0.36900
H707        H  0.09858120  0.86160825  0.82711050     0.17300
O708        O  0.08241255  0.91114132  0.85489091    -0.59600
H709        H  0.18752958  0.95293046  0.94134741     0.17300
O710        O  0.20468132  0.90484457  0.91156703    -0.59700
H711        H  0.19872710  0.89064683  0.94217490     0.44300
H712        H  0.09027852  0.92452705  0.82363216     0.44300
C713        C  0.13712926  0.94707273  0.71323680    -0.04800
C714        C  0.16077643  0.95584831  0.75319025    -0.32200
C715        C  0.17123262  0.93136089  0.77046002     0.37000
C716        C  0.15299621  0.89486287  0.75471022    -0.05200
C717        C  0.12661170  0.88439636  0.71809295    -0.32100
C718        C  0.11912087  0.91042377  0.69656488     0.36900
H719        H  0.17400949  0.98316597  0.76861231     0.17300
O720        O  0.20157159  0.94386996  0.79926541    -0.59600
H721        H  0.11262134  0.85632659  0.70527668     0.17300
O722        O  0.09597164  0.90020651  0.65775320    -0.59700
H723        H  0.07119367  0.88739443  0.67204737     0.44300
H724        H  0.19894751  0.95853683  0.82553611     0.44300
C725        C  0.36283810  0.75046826  0.73531732    -0.04800
C726        C  0.34498480  0.76769711  0.75588153    -0.32200
C727        C  0.34992840  0.80076619  0.73777402     0.37000
C728        C  0.37112839  0.81660213  0.69566699    -0.05200
C729        C  0.38915336  0.79932723  0.67468581    -0.32100
C730        C  0.38519531  0.76652450  0.69434366     0.36900
H731        H  0.32725702  0.75570935  0.78696135     0.17300
O732        O  0.33475513  0.81808655  0.76278079    -0.59600
H733        H  0.40587632  0.81087606  0.64268084     0.17300
O734        O  0.40414455  0.75108078  0.67428251    -0.59700
H735        H  0.39065807  0.73857783  0.64442926     0.44300
H736        H  0.30810511  0.80189288  0.75935325     0.44300
C737        C  0.36964144  0.74069504  0.84415444    -0.04800
C738        C  0.40092213  0.77476823  0.83580938    -0.32200
C739        C  0.40740899  0.80570990  0.86286357     0.37000
C740        C  0.38309238  0.80252470  0.90008055    -0.05200
C741        C  0.35496945  0.76744531  0.91288802    -0.32100
C742        C  0.34784458  0.73671650  0.88498019     0.36900
H743        H  0.41863677  0.77808114  0.80546074     0.17300
O744        O  0.43461055  0.83948174  0.84835120    -0.59600
H745        H  0.33608586  0.76445230  0.94153869     0.17300
O746        O  0.31689249  0.70411493  0.89431052    -0.59700
H747        H  0.32256439  0.69404775  0.92341767     0.44300
H748        H  0.45683248  0.84265889  0.86464774     0.44300
C749        C  0.21188735  0.57726905  0.67034744    -0.04800
C750        C  0.24315446  0.57360904  0.67314194    -0.32200
C751        C  0.27251626  0.59753860  0.70136404     0.37000
C752        C  0.27494813  0.63004492  0.71833016    -0.05200
C753        C  0.24696864  0.63765740  0.70772306    -0.32100
C754        C  0.21461306  0.61065302  0.68613014     0.36900
H755        H  0.24296380  0.54937223  0.65923494     0.17300
O756        O  0.29678930  0.58704129  0.71635376    -0.59600
H757        H  0.24884184  0.66302488  0.72012891     0.17300
O758        O  0.18535459  0.61621432  0.68404563    -0.59700
H759        H  0.17236679  0.60684093  0.71531056     0.44300
H760        H  0.28684314  0.57380551  0.74735187     0.44300
C761        C  0.20880935  0.57059347  0.87547469    -0.04800
C762        C  0.24219258  0.57131580  0.88202176    -0.32200
C763        C  0.27382328  0.59693071  0.85801402     0.37000
C764        C  0.27304503  0.62346268  0.82786465    -0.05200
C765        C  0.24062743  0.62490450  0.82460508    -0.32100
C766        C  0.20849191  0.59826594  0.84695581     0.36900
H767        H  0.24355101  0.55086925  0.90441037     0.17300
O768        O  0.30464878  0.59406539  0.86153762    -0.59600
H769        H  0.23993793  0.64628043  0.80369776     0.17300
O770        O  0.17675556  0.59863162  0.83866098    -0.59700
H771        H  0.16606002  0.58311740  0.80948677     0.44300
H772        H  0.31460928  0.60356193  0.89423766     0.44300
C773        C  0.44736870  0.63761649  0.86031538    -0.04800
C774        C  0.44325089  0.66720497  0.87563869    -0.32200
C775        C  0.41678837  0.67369101  0.85535540     0.37000
C776        C  0.39369179  0.65040544  0.81873259    -0.05200
C777        C  0.39666466  0.61974570  0.80477959    -0.32100
C778        C  0.42339111  0.61332215  0.82523785     0.36900
H779        H  0.46178679  0.68639012  0.90218149     0.17300
O780        O  0.41590420  0.70468852  0.86876179    -0.59600
H781        H  0.37890460  0.60137274  0.77700046     0.17300
O782        O  0.42692442  0.58431247  0.80918847    -0.59700
H783        H  0.44272012  0.59349453  0.78003578     0.44300
H784        H  0.40450476  0.69933849  0.90141723     0.44300
C785        C  0.13771930  0.77064878  0.84359036    -0.04800
C786        C  0.13493911  0.73769363  0.82678079    -0.32200
C787        C  0.10636692  0.70379131  0.84227166     0.37000
C788        C  0.08097708  0.70264352  0.87624118    -0.05200
C789        C  0.08629417  0.73534327  0.89723359    -0.32100
C790        C  0.11454836  0.76920469  0.88153160     0.36900
H791        H  0.15306035  0.73825590  0.79851849     0.17300
O792        O  0.10183719  0.67216675  0.82128284    -0.59600
H793        H  0.06688722  0.73471547  0.92352673     0.17300
O794        O  0.11614918  0.80050325  0.89917243    -0.59700
H795        H  0.12865996  0.80501393  0.93088655     0.44300
H796        H  0.08785512  0.66919622  0.79117505     0.44300
C797        C  0.45600281  0.66565353  0.66321932    -0.04800
C798        C  0.41994750  0.63887647  0.65257471    -0.32200
C799        C  0.39035452  0.63846656  0.67654537     0.37000
C800        C  0.39637781  0.66524545  0.71172869    -0.05200
C801        C  0.43157283  0.69358237  0.71936749    -0.32100
C802        C  0.46105215  0.69439125  0.69575563     0.36900
H803        H  0.41437410  0.61751203  0.62639584     0.17300
O804        O  0.35591806  0.61137626  0.66575704    -0.59600
H805        H  0.43650464  0.71485814  0.74558895     0.17300
O806        O  0.49456521  0.72260032  0.70797856    -0.59700
H807        H  0.49668360  0.74453485  0.69143119     0.44300
H808        H  0.35414515  0.58854200  0.67879029     0.44300
C809        C  0.08157180  0.71640594  0.68162101    -0.04800
C810        C  0.07032925  0.72863444  0.72209556    -0.32200
C811        C  0.09421735  0.76028164  0.74673616     0.37000
C812        C  0.13136594  0.77733320  0.73592418    -0.05200
C813        C  0.14372474  0.76298584  0.69892330    -0.32100
C814        C  0.11882413  0.73332390  0.67050725     0.36900
H815        H  0.04243205  0.71387669  0.73407557     0.17300
O816        O  0.08114829  0.77507739  0.78052629    -0.59600
H817        H  0.17246953  0.77442284  0.69233326     0.17300
O818        O  0.13108081  0.72118652  0.63255759    -0.59700
H819        H  0.12973865  0.73455856  0.60374962     0.44300
H820        H  0.06614747  0.75513707  0.80363424     0.44300
C821        C  0.12582567  0.85860315  0.22724767    -0.04800
C822        C  0.09180538  0.84963309  0.24680831    -0.32200
C823        C  0.06930001  0.86019538  0.22431095     0.37000
C824        C  0.07649567  0.87353124  0.17652698    -0.05200
C825        C  0.10830648  0.87888766  0.15361174    -0.32100
C826        C  0.13310740  0.87167655  0.17863339     0.36900
H827        H  0.08243742  0.83491189  0.28055186     0.15700
O828        O  0.03922792  0.85601368  0.24887205    -0.59600
H829        H  0.11344351  0.88764677  0.11608125     0.17300
O830        O  0.16342667  0.87649058  0.15441492    -0.59700
H831        H  0.15470184  0.85561084  0.13145636     0.44300
H832        H  0.04699294  0.88008565  0.26440341     0.44300
C833        C  0.07631112  0.88041529  0.37971338    -0.04800
C834        C  0.10338039  0.90773536  0.35038301    -0.32200
C835        C  0.13129526  0.90278899  0.33005342     0.37000
C836        C  0.13222231  0.87020736  0.33916295    -0.05200
C837        C  0.10779866  0.84523407  0.37309887    -0.32100
C838        C  0.07997856  0.85000250  0.39304692     0.36900
H839        H  0.10146856  0.93166440  0.34049181     0.17300
O840        O  0.15655622  0.92898534  0.29976862    -0.59600
H841        H  0.10848122  0.82039494  0.38129155     0.17300
O842        O  0.05504797  0.82350400  0.42326285    -0.59700
H843        H  0.06430816  0.83198413  0.45651270     0.44300
H844        H  0.14305185  0.92850946  0.27019703     0.44300
C845        C  0.31367267  0.93727692  0.18729051    -0.04800
C846        C  0.28175642  0.93884486  0.17893125    -0.32200
C847        C  0.24882055  0.91352613  0.20010757     0.37000
C848        C  0.24647761  0.88414806  0.22741768    -0.05200
C849        C  0.27726103  0.87968900  0.23056624    -0.32100
C850        C  0.31096029  0.90639126  0.21129111     0.36900
H851        H  0.28322108  0.96233803  0.16058444     0.17300
O852        O  0.22114393  0.92153167  0.20105980    -0.59600
H853        H  0.27597023  0.85746467  0.25194068     0.17300
O854        O  0.34141384  0.90361541  0.21969486    -0.59700
H855        H  0.35019506  0.91477952  0.25209991     0.44300
H856        H  0.22525868  0.93667384  0.23054941     0.44300
C857        C  0.31323567  0.94239462  0.39104069    -0.04800
C858        C  0.28639668  0.91099965  0.41418955    -0.32200
C859        C  0.25526997  0.88535634  0.38848602     0.37000
C860        C  0.24943598  0.89271719  0.33986203    -0.05200
C861        C  0.27605799  0.92578192  0.31917662    -0.32100
C862        C  0.30879734  0.94813938  0.34211252     0.36900
H863        H  0.28914206  0.90668718  0.45232387     0.17300
O864        O  0.23014489  0.85448516  0.41231142    -0.59600
H865        H  0.27174195  0.93570688  0.28552077     0.17300
O866        O  0.33536339  0.97775451  0.31755533    -0.59700
H867        H  0.35177869  0.96934472  0.30423390     0.44300
H868        H  0.24350640  0.84219932  0.42419403     0.44300
C869        C  0.14693102  0.71339412  0.40046469    -0.04800
C870        C  0.11648835  0.71527525  0.38394182    -0.32200
C871        C  0.12099373  0.74704538  0.36086362     0.37000
C872        C  0.15620488  0.77569714  0.35037980    -0.05200
C873        C  0.18602030  0.77544107  0.37125160    -0.32100
C874        C  0.18138206  0.74555605  0.39880444     0.36900
H875        H  0.08952721  0.69156286  0.38616120     0.17300
O876        O  0.09109917  0.74919656  0.34670542    -0.59600
H877        H  0.21319559  0.79765371  0.36416754     0.17300
O878        O  0.21071849  0.74714461  0.42245252    -0.59700
H879        H  0.23032470  0.75443891  0.39790748     0.44300
H880        H  0.08048842  0.75258964  0.37708342     0.44300
C881        C  0.44109160  0.81488353  0.37562629    -0.04800
C882        C  0.41654644  0.81635838  0.34281715    -0.32200
C883        C  0.38837187  0.78394632  0.32205393     0.37000
C884        C  0.38454025  0.74956761  0.33445946    -0.05200
C885        C  0.40615929  0.74826756  0.37188271    -0.32100
C886        C  0.43456664  0.78035050  0.39178227     0.36900
H887        H  0.42045450  0.84268929  0.33119364     0.17300
O888        O  0.36447197  0.78578498  0.29009760    -0.59600
H889        H  0.40267012  0.72234495  0.38344431     0.17300
O890        O  0.45715268  0.77765012  0.42505276    -0.59700
H891        H  0.44819502  0.78058007  0.45711612     0.44300
H892        H  0.37937309  0.80518984  0.26627551     0.44300
C893        C  0.39522295  0.74619745  0.22725456    -0.04800
C894        C  0.38589152  0.76437857  0.19228507    -0.32200
C895        C  0.41296357  0.79513326  0.16743698     0.37000
C896        C  0.45001222  0.80792500  0.17757700    -0.05200
C897        C  0.45855239  0.78906705  0.21297281    -0.32100
C898        C  0.43182680  0.75844761  0.23690576     0.36900
H899        H  0.35764864  0.75555782  0.18528904     0.17300
O900        O  0.40288109  0.81145346  0.13241481    -0.59600
H901        H  0.48625520  0.79783621  0.22303709     0.17300
O902        O  0.44170197  0.73999321  0.26908663    -0.59700
H903        H  0.45516847  0.75766322  0.29541639     0.44300
H904        H  0.39148739  0.82377410  0.15019861     0.44300
C905        C  0.19911648  0.63565099  0.35770081    -0.04800
C906        C  0.21925364  0.62128060  0.37984027    -0.32200
C907        C  0.25290479  0.62825070  0.36015845     0.37000
C908        C  0.26742915  0.65108580  0.31917913    -0.05200
C909        C  0.24690089  0.66490996  0.29716445    -0.32100
C910        C  0.21236286  0.65558040  0.31416029     0.36900
H911        H  0.20963538  0.60590678  0.41328966     0.17300
O912        O  0.27157224  0.61316592  0.38165379    -0.59600
H913        H  0.25741035  0.68271725  0.26586853     0.17300
O914        O  0.19162068  0.66659974  0.28859840    -0.59700
H915        H  0.20593141  0.69374888  0.28701683     0.44300
H916        H  0.26280598  0.58920144  0.36527451     0.44300
C917        C  0.35881352  0.62725621  0.34395346    -0.04800
C918        C  0.33412134  0.59066080  0.33414474    -0.32200
C919        C  0.33698559  0.56243592  0.35627616     0.37000
C920        C  0.36413957  0.57014125  0.39204376    -0.05200
C921        C  0.38791877  0.60715966  0.40362184    -0.32100
C922        C  0.38581637  0.63555188  0.37933665     0.36900
H923        H  0.31361188  0.58381381  0.30641473     0.17300
O924        O  0.31504126  0.52773491  0.33879605    -0.59600
H925        H  0.40883218  0.61433574  0.43070884     0.17300
O926        O  0.41111371  0.67111574  0.38934960    -0.59700
H927        H  0.43351043  0.67562295  0.37200534     0.44300
H928        H  0.28985819  0.52123377  0.34800843     0.44300
C929        C  0.37257289  0.62917712  0.23722525    -0.04800
C930        C  0.34872248  0.60507493  0.20223007    -0.32200
C931        C  0.35337564  0.57669008  0.18360238     0.37000
C932        C  0.38234881  0.57196693  0.19975660    -0.05200
C933        C  0.40781744  0.59760238  0.23210932    -0.32100
C934        C  0.40327624  0.62633471  0.25045901     0.36900
H935        H  0.32524030  0.60701187  0.19096939     0.17300
O936        O  0.32920794  0.55329062  0.14983983    -0.59600
H937        H  0.43041083  0.59452490  0.24454145     0.17300
O938        O  0.42843211  0.65085820  0.28220281    -0.59700
H939        H  0.44513430  0.67216086  0.26203148     0.44300
H940        H  0.30653100  0.53742281  0.16811196     0.44300
C941        C  0.21144029  0.62941500  0.16977431    -0.04800
C942        C  0.24462799  0.65776972  0.15206233    -0.32200
C943        C  0.27763439  0.66460668  0.17246925     0.37000
C944        C  0.27763431  0.64321868  0.21171949    -0.05200
C945        C  0.24515884  0.61063551  0.22253852    -0.32100
C946        C  0.21194218  0.60412816  0.20270073     0.36900
H947        H  0.24472662  0.67699933  0.12582860     0.17300
O948        O  0.30891930  0.69507341  0.15803967    -0.59600
H949        H  0.24483346  0.59283896  0.25115817     0.17300
O950        O  0.18006831  0.57561796  0.22003136    -0.59700
H951        H  0.17409115  0.58534005  0.24938012     0.44300
H952        H  0.31687122  0.68744613  0.12847286     0.44300
C953        C  0.15219571  0.70542251  0.19374091    -0.04800
C954        C  0.12138345  0.70506488  0.21390906    -0.32200
C955        C  0.12383237  0.73645899  0.23633531     0.37000
C956        C  0.15783611  0.76853620  0.24086266    -0.05200
C957        C  0.18814281  0.76974889  0.21850228    -0.32100
C958        C  0.18557294  0.73907268  0.19440136     0.36900
H959        H  0.09518941  0.68028294  0.21284683     0.17300
O960        O  0.09275028  0.73652476  0.25064939    -0.59600
H961        H  0.21412940  0.79486319  0.21944763     0.17300
O962        O  0.21536207  0.74302293  0.16919904    -0.59700
H963        H  0.23473339  0.74945900  0.19371475     0.44300
H964        H  0.07742779  0.71299836  0.26773727     0.44300
C965        C  0.61587199  0.10957142  0.13677969     0.03800
C966        C  0.61776318  0.14259023  0.15216178    -0.12400
C967        C  0.64964386  0.17060590  0.17428403     0.01300
C968        C  0.67928496  0.16461240  0.17972848    -0.10900
C969        C  0.67827880  0.13255253  0.16329409     0.03800
C970        C  0.64629148  0.10477227  0.14247473    -0.10300
H971        H  0.59467748  0.14651848  0.14600270     0.09400
H972        H  0.70350579  0.18455109  0.19825870     0.06900
H973        H  0.64539904  0.07995583  0.12951345     0.06800
C974        C  0.84835647  0.17604994  0.23308314     0.46100
H975        H  0.85289025  0.17568928  0.19342766    -0.02900
C976        C  0.83904011  0.17719548  0.32651684     0.46200
H977        H  0.83497653  0.17764421  0.36629087    -0.02900
C978        C  0.86282890  0.15478526  0.26204020    -0.16600
C979        C  0.86712934  0.21475920  0.25499004    -0.16300
C980        C  0.80819042  0.15861097  0.24772221    -0.16700
C981        C  0.85792612  0.15518005  0.31153935    -0.16700
C982        C  0.86259221  0.21573298  0.30439252    -0.16300
C983        C  0.80320053  0.15998269  0.29712403    -0.16600
C984        C  0.67639491  0.33853347  0.24000683     0.46100
H985        H  0.67613112  0.33498670  0.20017221    -0.02900
C986        C  0.67792504  0.34520489  0.33392124     0.46200
H987        H  0.67739556  0.34762115  0.37387222    -0.02900
C988        C  0.65239894  0.35419186  0.25893884    -0.16600
C989        C  0.66266921  0.30198163  0.26672946    -0.16300
C990        C  0.71478233  0.36372711  0.26049988    -0.16700
C991        C  0.65430100  0.35859434  0.30907936    -0.16700
C992        C  0.66291322  0.30551822  0.31634513    -0.16300
C993        C  0.71591369  0.36751209  0.31065659    -0.16600
C994        C  0.51320915  0.40577176  0.13256460     0.03800
C995        C  0.54655489  0.40658067  0.13923305    -0.12400
C996        C  0.54662267  0.37402656  0.14976159     0.01300
C997        C  0.51392895  0.34097630  0.14868409    -0.10900
C998        C  0.98082384  0.34063229  0.15356009     0.03800
C999        C  0.98036766  0.37331942  0.14303648    -0.10300
H1000       H  0.57198071  0.43220138  0.13678383     0.09400
H1001       H  0.51494955  0.31589966  0.15354303     0.06900
H1002       H  0.95520029  0.37404550  0.14324387     0.06800
C1003       C  0.90984129  0.00620873  0.14380807     0.03800
C1004       C  0.91225892  0.03902304  0.16066678    -0.12400
C1005       C  0.88326364  0.03816541  0.18663748     0.01300
C1006       C  0.85275793  0.00436211  0.19734119    -0.10900
C1007       C  0.84914194  0.47140650  0.17952408     0.03800
C1008       C  0.87807139  0.47240626  0.15294450    -0.10300
H1009       H  0.93588280  0.06511333  0.15185450     0.09400
H1010       H  0.83087421  0.00387950  0.21852660     0.06900
H1011       H  0.87552126  0.44728960  0.13826135     0.06800
C1012       C  0.50880376  0.40926927  0.42632830     0.03800
C1013       C  0.54193840  0.41044893  0.41509734    -0.12400
C1014       C  0.54204446  0.38087849  0.39105281     0.01300
C1015       C  0.50871594  0.35048650  0.37773871    -0.10900
C1016       C  0.97547535  0.34866866  0.38879710     0.03800
C1017       C  0.97566188  0.37839304  0.41274536    -0.10300
H1018       H  0.56744290  0.43379897  0.42624614     0.09400
H1019       H  0.50861593  0.32789220  0.35845933     0.06900
H1020       H  0.95012938  0.37700325  0.42215988     0.06800
C1021       C  0.90544678  0.01178466  0.43703713     0.03800
C1022       C  0.90263794  0.04342520  0.42716952    -0.12400
C1023       C  0.86849740  0.03985777  0.41469179     0.01300
C1024       C  0.83783467  0.00506395  0.41905670    -0.10900
C1025       C  0.84145029  0.47382293  0.41819907     0.03800
C1026       C  0.87517094  0.47697266  0.42879404    -0.10300
H1027       H  0.92679902  0.07013707  0.42876394     0.09400
H1028       H  0.81087165  0.00153422  0.41515198     0.06900
H1029       H  0.87781775  0.45263062  0.43064483     0.06800
C1030       C  0.61206410  0.11213076  0.42907710     0.03800
C1031       C  0.61455023  0.14690311  0.42911400    -0.12400
C1032       C  0.64447253  0.17704355  0.40755619     0.01300
C1033       C  0.67149031  0.17171638  0.38642818    -0.10900
C1034       C  0.66916099  0.13742273  0.38397105     0.03800
C1035       C  0.63940719  0.10733470  0.40623597    -0.10300
H1036       H  0.59343674  0.15045538  0.44631689     0.09400
H1037       H  0.69451906  0.19462913  0.36958881     0.06900
H1038       H  0.63762277  0.08070412  0.40611541     0.06800
Zn1039     Zn  0.50942513  0.46713623  0.55897949     1.49700
Zn1040     Zn  0.96914170  0.01529816  0.56162722     1.49400
Zn1041     Zn  0.55438461  0.05494623  0.55914381     1.49100
Zn1042     Zn  0.50890045  0.01185097  0.46257706     1.49500
O1043       O  0.51046637  0.01210314  0.53488278    -1.83500
O1044       O  0.96374665  0.43601066  0.59888691    -0.74100
O1045       O  0.98343383  0.06232939  0.59873185    -0.73900
O1046       O  0.58444738  0.03980024  0.59942131    -0.73400
O1047       O  0.93794252  0.47094585  0.60265804    -0.74100
O1048       O  0.55394006  0.47895422  0.60008948    -0.73700
O1049       O  0.54359310  0.09023922  0.59689259    -0.74300
O1050       O  0.55504652  0.05663168  0.43602004    -0.73700
O1051       O  0.93718239  0.01505044  0.50805525    -0.74400
O1052       O  0.58557220  0.08420195  0.50326255    -0.73800
O1053       O  0.96286646  0.01284122  0.43843716    -0.74300
O1054       O  0.50804829  0.46550732  0.43589515    -0.74200
O1055       O  0.50937147  0.43602751  0.50231395    -0.74000
C1056       C  0.93802095  0.44138943  0.61295934     0.77800
C1057       C  0.51424537  0.08995206  0.60842373     0.78300
C1058       C  0.58160673  0.00929508  0.61203535     0.77200
C1059       C  0.58274949  0.08237729  0.45729885     0.77600
C1060       C  0.93736713  0.01407027  0.46197936     0.78800
C1061       C  0.50871027  0.43854368  0.45628170     0.77800
Zn1062     Zn  0.55355827  0.05312975  0.00902510     1.49700
Zn1063     Zn  0.96573105  0.00741728  0.00949166     1.49400
Zn1064     Zn  0.51160949  0.46661225  0.00831703     1.49100
Zn1065     Zn  0.51195915  0.00868073  0.10591349     1.49500
O1066       O  0.51044874  0.00917822  0.03389584    -1.83500
O1067       O  0.53846521  0.08210403  0.96717720    -0.74100
O1068       O  0.93351867  0.45977779  0.97249397    -0.73900
O1069       O  0.55585830  0.48099525  0.96820843    -0.73400
O1070       O  0.97803915  0.05155474  0.96538622    -0.74100
O1071       O  0.58718371  0.04162405  0.96943830    -0.73700
O1072       O  0.96703594  0.43267596  0.97079369    -0.74300
O1073       O  0.51159785  0.46212527  0.13088550    -0.73700
O1074       O  0.93563476  0.00754746  0.06701725    -0.74400
O1075       O  0.51344155  0.43590592  0.06156520    -0.73800
O1076       O  0.96671137  0.00848475  0.13288280    -0.74300
O1077       O  0.55858662  0.05406084  0.13101051    -0.74200
O1078       O  0.58460152  0.08525492  0.06347288    -0.74000
C1079       C  0.50848331  0.07886589  0.95261456     0.77800
C1080       C  0.93778528  0.43272217  0.96072431     0.78300
C1081       C  0.58401624  0.01101578  0.95693631     0.77200
C1082       C  0.51266727  0.43636810  0.10753952     0.77600
C1083       C  0.93903575  0.00755356  0.11300417     0.78800
C1084       C  0.58423608  0.08174597  0.10932240     0.77800
C1085       C  0.51615273  0.12359152  0.62945236     0.03800
C1086       C  0.98447781  0.12680376  0.63509842    -0.12400
C1087       C  0.98740102  0.16139554  0.64467664     0.01300
C1088       C  0.52223088  0.19189048  0.64273449    -0.10900
C1089       C  0.55252490  0.18780841  0.65135277     0.03800
C1090       C  0.55003948  0.15384620  0.64211899    -0.10300
H1091       H  0.95808527  0.10246635  0.63240130     0.09400
H1092       H  0.52606107  0.21926160  0.64267734     0.06900
H1093       H  0.57390458  0.15083721  0.64566565     0.06800
C1094       C  0.50986296  0.10823442  0.92106088     0.03800
C1095       C  0.97790815  0.10672651  0.90307445    -0.12400
C1096       C  0.98007624  0.13627720  0.87633633     0.01300
C1097       C  0.51415779  0.16694834  0.86726133    -0.10900
C1098       C  0.54599479  0.16874297  0.88440224     0.03800
C1099       C  0.54388839  0.13933552  0.91069698    -0.10300
H1100       H  0.95150247  0.08338767  0.91107797     0.09400
H1101       H  0.51591279  0.18991121  0.84705996     0.06900
H1102       H  0.56881578  0.14141193  0.92434050     0.06800
C1103       C  0.84353110  0.18007001  0.72844155     0.46100
H1104       H  0.84308665  0.18371771  0.68860376    -0.02900
C1105       C  0.84379462  0.17072177  0.82176500     0.46200
H1106       H  0.84407658  0.16656349  0.86141541    -0.02900
C1107       C  0.85738532  0.21580079  0.75782360    -0.16600
C1108       C  0.80577701  0.15419060  0.74985987    -0.16300
C1109       C  0.86758815  0.16391305  0.74400088    -0.16700
C1110       C  0.85789207  0.21079589  0.80732894    -0.16700
C1111       C  0.80577459  0.14920148  0.79913392    -0.16300
C1112       C  0.86789029  0.15927809  0.79345778    -0.16600
C1113       C  0.68258500  0.34238444  0.84065785     0.46100
H1114       H  0.68529332  0.33994098  0.88031073    -0.02900
C1115       C  0.67692907  0.34784535  0.74720621     0.46200
H1116       H  0.67332908  0.35023954  0.70787911    -0.02900
C1117       C  0.71915722  0.36024220  0.81351788    -0.16600
C1118       C  0.65975356  0.30533369  0.81581483    -0.16300
C1119       C  0.66412222  0.36456062  0.82664581    -0.16700
C1120       C  0.71649991  0.36366740  0.76396848    -0.16700
C1121       C  0.65701124  0.30824139  0.76638081    -0.16300
C1122       C  0.66203541  0.36817707  0.77723548    -0.16600
C1123       C  0.61204405  0.00959418  0.63923294     0.03800
C1124       C  0.64604422  0.04230889  0.64068225    -0.12400
C1125       C  0.67604328  0.04315600  0.66322907     0.01300
C1126       C  0.67163297  0.01076183  0.68348414    -0.10900
C1127       C  0.63811602  0.47837059  0.68559903     0.03800
C1128       C  0.60808646  0.47768556  0.66248988    -0.10300
H1129       H  0.64939201  0.06683383  0.62320158     0.09400
H1130       H  0.69486951  0.01099301  0.69973141     0.06900
H1131       H  0.58182910  0.45298543  0.66320052     0.06800
C1132       C  0.90622386  0.41204573  0.63917677     0.03800
C1133       C  0.90517001  0.37925780  0.65411255    -0.12400
C1134       C  0.87291681  0.35010457  0.67366496     0.01300
C1135       C  0.84160956  0.35358543  0.67461049    -0.10900
C1136       C  0.84332197  0.38698984  0.66512774     0.03800
C1137       C  0.87554473  0.41618392  0.64737688    -0.10300
H1138       H  0.92931360  0.37667935  0.65105251     0.09400
H1139       H  0.81579585  0.33070684  0.68570087     0.06900
H1140       H  0.87622749  0.44170317  0.63898156     0.06800
C1141       C  0.90765223  0.39965577  0.93749490     0.03800
C1142       C  0.91021435  0.36756558  0.93183614    -0.12400
C1143       C  0.88033676  0.33504066  0.91526526     0.01300
C1144       C  0.84760790  0.33444863  0.90621300    -0.10900
C1145       C  0.84535929  0.36669999  0.90592771     0.03800
C1146       C  0.87575533  0.39938340  0.92217515    -0.10300
H1147       H  0.93520286  0.36766444  0.94050780     0.09400
H1148       H  0.82428757  0.30864201  0.89606406     0.06900
H1149       H  0.87528663  0.42485978  0.92194933     0.06800
C1150       C  0.61397004  0.00938517  0.93115799     0.03800
C1151       C  0.64572611  0.04121220  0.91522527    -0.12400
C1152       C  0.67459892  0.03834880  0.89369750     0.01300
C1153       C  0.67112891  0.00351967  0.88905406    -0.10900
C1154       C  0.64025200  0.47208739  0.90558323     0.03800
C1155       C  0.61160838  0.47498230  0.92564882    -0.10300
H1156       H  0.64821321  0.06790861  0.92045110     0.09400
H1157       H  0.69254702  0.00065120  0.87172300     0.06900
H1158       H  0.58791729  0.45025877  0.93832411     0.06800
C1159       C  0.75158100  0.36282559  0.83736878    -0.04800
C1160       C  0.76961104  0.38829340  0.87449550    -0.32200
C1161       C  0.79940214  0.38949713  0.89845249     0.37000
C1162       C  0.81251803  0.36580574  0.88395101    -0.05200
C1163       C  0.79370124  0.34028109  0.84674118    -0.32100
C1164       C  0.76347817  0.33833487  0.82416020     0.36900
H1165       H  0.76080485  0.40744858  0.88486683     0.17300
O1166       O  0.81454779  0.41316999  0.93667444    -0.59600
H1167       H  0.80206896  0.32126266  0.83467851     0.17300
O1168       O  0.74489941  0.31150722  0.79021246    -0.59700
H1169       H  0.76024318  0.31958274  0.76059033     0.44300
H1170       H  0.80140881  0.39886501  0.96580855     0.44300
C1171       C  0.74831884  0.37789976  0.72966351    -0.04800
C1172       C  0.78265456  0.40590891  0.74497396    -0.32200
C1173       C  0.81441165  0.41206125  0.72098519     0.37000
C1174       C  0.81202130  0.39122673  0.67974514    -0.05200
C1175       C  0.77782337  0.36755371  0.66009709    -0.32100
C1176       C  0.74608980  0.36119988  0.68417699     0.36900
H1177       H  0.78516160  0.42110381  0.77787826     0.17300
O1178       O  0.84758969  0.43589220  0.74075669    -0.59600
H1179       H  0.77566877  0.35169696  0.62793792     0.17300
O1180       O  0.71346425  0.33603957  0.66477503    -0.59700
H1181       H  0.70894715  0.34903360  0.63803468     0.44300
H1182       H  0.85229184  0.42125187  0.76488982     0.44300
C1183       C  0.65051269  0.38147372  0.86255847    -0.04800
C1184       C  0.61752817  0.38078594  0.85329616    -0.32200
C1185       C  0.61178035  0.40871649  0.87099595     0.37000
C1186       C  0.63841766  0.43631051  0.90033929    -0.05200
C1187       C  0.66745082  0.43238933  0.91747010    -0.32100
C1188       C  0.67348286  0.40487399  0.89903343     0.36900
H1189       H  0.59858123  0.36160828  0.82711048     0.17300
O1190       O  0.58241259  0.41114134  0.85489087    -0.59600
H1191       H  0.68752959  0.45293050  0.94134737     0.17300
O1192       O  0.70468135  0.40484461  0.91156705    -0.59700
H1193       H  0.69872708  0.39064684  0.94217491     0.44300
H1194       H  0.59027861  0.42452711  0.82363216     0.44300
C1195       C  0.63712933  0.44707272  0.71323676    -0.04800
C1196       C  0.66077646  0.45584829  0.75319023    -0.32200
C1197       C  0.67123266  0.43136087  0.77046004     0.37000
C1198       C  0.65299624  0.39486285  0.75471022    -0.05200
C1199       C  0.62661176  0.38439634  0.71809293    -0.32100
C1200       C  0.61912096  0.41042377  0.69656483     0.36900
H1201       H  0.67400952  0.48316595  0.76861228     0.17300
O1202       O  0.70157166  0.44386996  0.79926537    -0.59600
H1203       H  0.61262138  0.35632655  0.70527669     0.17300
O1204       O  0.59597177  0.40020655  0.65775316    -0.59700
H1205       H  0.57119369  0.38739453  0.67204745     0.44300
H1206       H  0.69894761  0.45853688  0.82553616     0.44300
C1207       C  0.86283804  0.25046823  0.73531733    -0.04800
C1208       C  0.84498466  0.26769705  0.75588146    -0.32200
C1209       C  0.84992829  0.30076616  0.73777399     0.37000
C1210       C  0.87112833  0.31660214  0.69566702    -0.05200
C1211       C  0.88915336  0.29932727  0.67468592    -0.32100
C1212       C  0.88519531  0.26652454  0.69434374     0.36900
H1213       H  0.82725682  0.25570925  0.78696123     0.17300
O1214       O  0.83475504  0.31808655  0.76278077    -0.59600
H1215       H  0.90587635  0.31087613  0.64268098     0.17300
O1216       O  0.90414450  0.25108079  0.67428250    -0.59700
H1217       H  0.89065797  0.23857786  0.64442926     0.44300
H1218       H  0.80810502  0.30189290  0.75935323     0.44300
C1219       C  0.86964149  0.24069504  0.84415445    -0.04800
C1220       C  0.90092220  0.27476824  0.83580939    -0.32200
C1221       C  0.90740907  0.30570993  0.86286357     0.37000
C1222       C  0.88309242  0.30252474  0.90008052    -0.05200
C1223       C  0.85496950  0.26744535  0.91288804    -0.32100
C1224       C  0.84784463  0.23671652  0.88498023     0.36900
H1225       H  0.91863685  0.27808114  0.80546075     0.17300
O1226       O  0.93461066  0.33948177  0.84835122    -0.59600
H1227       H  0.83608590  0.26445235  0.94153869     0.17300
O1228       O  0.81689246  0.20411502  0.89431044    -0.59700
H1229       H  0.82256439  0.19404762  0.92341756     0.44300
H1230       H  0.95683258  0.34265890  0.86464776     0.44300
C1231       C  0.71188729  0.07726905  0.67034748    -0.04800
C1232       C  0.74315436  0.07360899  0.67314207    -0.32200
C1233       C  0.77251610  0.09753845  0.70136424     0.37000
C1234       C  0.77494808  0.13004484  0.71833021    -0.05200
C1235       C  0.74696865  0.13765740  0.70772301    -0.32100
C1236       C  0.71461305  0.11065303  0.68613014     0.36900
H1237       H  0.74296369  0.04937221  0.65923498     0.17300
O1238       O  0.79678913  0.08704108  0.71635383    -0.59600
H1239       H  0.74884189  0.16302492  0.72012877     0.17300
O1240       O  0.68535463  0.11621439  0.68404560    -0.59700
H1241       H  0.67236677  0.10684096  0.71531059     0.44300
H1242       H  0.78684317  0.07380551  0.74735197     0.44300
C1243       C  0.70880939  0.07059347  0.87547469    -0.04800
C1244       C  0.74219262  0.07131578  0.88202170    -0.32200
C1245       C  0.77382332  0.09693072  0.85801402     0.37000
C1246       C  0.77304504  0.12346266  0.82786463    -0.05200
C1247       C  0.74062744  0.12490444  0.82460501    -0.32100
C1248       C  0.70849195  0.09826593  0.84695582     0.36900
H1249       H  0.74355105  0.05086920  0.90441025     0.17300
O1250       O  0.80464885  0.09406544  0.86153765    -0.59600
H1251       H  0.73993790  0.14628032  0.80369762     0.17300
O1252       O  0.67675563  0.09863163  0.83866102    -0.59700
H1253       H  0.66606010  0.08311741  0.80948678     0.44300
H1254       H  0.81460932  0.10356195  0.89423764     0.44300
C1255       C  0.94736864  0.13761642  0.86031531    -0.04800
C1256       C  0.94325081  0.16720488  0.87563873    -0.32200
C1257       C  0.91678828  0.17369095  0.85535543     0.37000
C1258       C  0.89369171  0.15040538  0.81873260    -0.05200
C1259       C  0.89666453  0.11974563  0.80477959    -0.32100
C1260       C  0.92339095  0.11332202  0.82523785     0.36900
H1261       H  0.96178672  0.18638999  0.90218156     0.17300
O1262       O  0.91590412  0.20468849  0.86876178    -0.59600
H1263       H  0.87890445  0.10137270  0.77700044     0.17300
O1264       O  0.92692417  0.08431228  0.80918850    -0.59700
H1265       H  0.94272017  0.09349444  0.78003587     0.44300
H1266       H  0.90450488  0.19933859  0.90141726     0.44300
C1267       C  0.63771935  0.27064880  0.84359033    -0.04800
C1268       C  0.63493915  0.23769365  0.82678073    -0.32200
C1269       C  0.60636695  0.20379134  0.84227167     0.37000
C1270       C  0.58097713  0.20264357  0.87624122    -0.05200
C1271       C  0.58629424  0.23534332  0.89723362    -0.32100
C1272       C  0.61454840  0.26920473  0.88153156     0.36900
H1273       H  0.65306035  0.23825590  0.79851838     0.17300
O1274       O  0.60183713  0.17216677  0.82128279    -0.59600
H1275       H  0.56688732  0.23471554  0.92352682     0.17300
O1276       O  0.61614928  0.30050331  0.89917247    -0.59700
H1277       H  0.62865990  0.30501385  0.93088657     0.44300
H1278       H  0.58785510  0.16919632  0.79117510     0.44300
C1279       C  0.95600283  0.16565356  0.66321936    -0.04800
C1280       C  0.91994753  0.13887648  0.65257479    -0.32200
C1281       C  0.89035455  0.13846656  0.67654544     0.37000
C1282       C  0.89637780  0.16524546  0.71172872    -0.05200
C1283       C  0.93157281  0.19358244  0.71936746    -0.32100
C1284       C  0.96105215  0.19439131  0.69575563     0.36900
H1285       H  0.91437412  0.11751203  0.62639593     0.17300
O1286       O  0.85591809  0.11137625  0.66575709    -0.59600
H1287       H  0.93650459  0.21485821  0.74558892     0.17300
O1288       O  0.99456523  0.22260035  0.70797860    -0.59700
H1289       H  0.99668369  0.24453489  0.69143120     0.44300
H1290       H  0.85414518  0.08854199  0.67879031     0.44300
C1291       C  0.58157185  0.21640595  0.68162103    -0.04800
C1292       C  0.57032931  0.22863451  0.72209552    -0.32200
C1293       C  0.59421739  0.26028169  0.74673616     0.37000
C1294       C  0.63136600  0.27733322  0.73592420    -0.05200
C1295       C  0.64372479  0.26298583  0.69892333    -0.32100
C1296       C  0.61882417  0.23332391  0.67050727     0.36900
H1297       H  0.54243210  0.21387678  0.73407548     0.17300
O1298       O  0.58114833  0.27507747  0.78052621    -0.59600
H1299       H  0.67246957  0.27442280  0.69233328     0.17300
O1300       O  0.63108081  0.22118657  0.63255752    -0.59700
H1301       H  0.62973872  0.23455871  0.60374970     0.44300
H1302       H  0.56614735  0.25513705  0.80363422     0.44300
C1303       C  0.62582562  0.35860310  0.22724767    -0.04800
C1304       C  0.59180530  0.34963303  0.24680829    -0.32200
C1305       C  0.56929997  0.36019540  0.22431095     0.37000
C1306       C  0.57649568  0.37353130  0.17652701    -0.05200
C1307       C  0.60830647  0.37888765  0.15361177    -0.32100
C1308       C  0.63310735  0.37167647  0.17863338     0.36900
H1309       H  0.58243733  0.33491184  0.28055182     0.15700
O1310       O  0.53922786  0.35601372  0.24887204    -0.59600
H1311       H  0.61344354  0.38764681  0.11608130     0.17300
O1312       O  0.66342669  0.37649060  0.15441496    -0.59700
H1313       H  0.65470197  0.35561097  0.13145624     0.44300
H1314       H  0.54699288  0.38008569  0.26440338     0.44300
C1315       C  0.57631110  0.38041529  0.37971333    -0.04800
C1316       C  0.60338037  0.40773537  0.35038297    -0.32200
C1317       C  0.63129524  0.40278896  0.33005347     0.37000
C1318       C  0.63222229  0.37020732  0.33916300    -0.05200
C1319       C  0.60779860  0.34523400  0.37309888    -0.32100
C1320       C  0.57997848  0.35000244  0.39304686     0.36900
H1321       H  0.60146855  0.43166441  0.34049170     0.17300
O1322       O  0.65655612  0.42898523  0.29976851    -0.59600
H1323       H  0.60848116  0.32039487  0.38129161     0.17300
O1324       O  0.55504787  0.32350399  0.42326284    -0.59700
H1325       H  0.56430820  0.33198408  0.45651272     0.44300
H1326       H  0.64305169  0.42850929  0.27019709     0.44300
C1327       C  0.81367272  0.43727697  0.18729054    -0.04800
C1328       C  0.78175646  0.43884491  0.17893127    -0.32200
C1329       C  0.74882058  0.41352614  0.20010756     0.37000
C1330       C  0.74647766  0.38414807  0.22741768    -0.05200
C1331       C  0.77726108  0.37968903  0.23056626    -0.32100
C1332       C  0.81096034  0.40639130  0.21129113     0.36900
H1333       H  0.78322112  0.46233808  0.16058445     0.17300
O1334       O  0.72114391  0.42153158  0.20105972    -0.59600
H1335       H  0.77597027  0.35746470  0.25194070     0.17300
O1336       O  0.84141389  0.40361544  0.21969485    -0.59700
H1337       H  0.85019514  0.41477956  0.25209989     0.44300
H1338       H  0.72525871  0.43667390  0.23054934     0.44300
C1339       C  0.81323570  0.44239460  0.39104072    -0.04800
C1340       C  0.78639670  0.41099963  0.41418956    -0.32200
C1341       C  0.75527001  0.38535633  0.38848601     0.37000
C1342       C  0.74943604  0.39271718  0.33986201    -0.05200
C1343       C  0.77605807  0.42578194  0.31917661    -0.32100
C1344       C  0.80879742  0.44813938  0.34211256     0.36900
H1345       H  0.78914205  0.40668716  0.45232388     0.17300
O1346       O  0.73014494  0.35448514  0.41231142    -0.59600
H1347       H  0.77174207  0.43570693  0.28552077     0.17300
O1348       O  0.83536351  0.47775456  0.31755550    -0.59700
H1349       H  0.85177866  0.46934474  0.30423371     0.44300
H1350       H  0.74350645  0.34219930  0.42419402     0.44300
C1351       C  0.64693104  0.21339415  0.40046471    -0.04800
C1352       C  0.61648839  0.21527531  0.38394181    -0.32200
C1353       C  0.62099374  0.24704542  0.36086364     0.37000
C1354       C  0.65620487  0.27569716  0.35037982    -0.05200
C1355       C  0.68602026  0.27544103  0.37125161    -0.32100
C1356       C  0.68138207  0.24555605  0.39880445     0.36900
H1357       H  0.58952726  0.19156294  0.38616111     0.17300
O1358       O  0.59109919  0.24919659  0.34670537    -0.59600
H1359       H  0.71319554  0.29765365  0.36416750     0.17300
O1360       O  0.71071853  0.24714462  0.42245249    -0.59700
H1361       H  0.73032474  0.25443896  0.39790744     0.44300
H1362       H  0.58048839  0.25258968  0.37708345     0.44300
C1363       C  0.94109158  0.31488353  0.37562632    -0.04800
C1364       C  0.91654638  0.31635834  0.34281722    -0.32200
C1365       C  0.88837187  0.28394629  0.32205394     0.37000
C1366       C  0.88454027  0.24956759  0.33445948    -0.05200
C1367       C  0.90615933  0.24826755  0.37188271    -0.32100
C1368       C  0.93456666  0.28035051  0.39178225     0.36900
H1369       H  0.92045439  0.34268923  0.33119372     0.17300
O1370       O  0.86447203  0.28578497  0.29009752    -0.59600
H1371       H  0.90267018  0.22234497  0.38344434     0.17300
O1372       O  0.95715265  0.27765017  0.42505284    -0.59700
H1373       H  0.94819496  0.28058015  0.45711605     0.44300
H1374       H  0.87937318  0.30518983  0.26627547     0.44300
C1375       C  0.89522303  0.24619749  0.22725457    -0.04800
C1376       C  0.88589160  0.26437859  0.19228507    -0.32200
C1377       C  0.91296363  0.29513328  0.16743697     0.37000
C1378       C  0.95001228  0.30792501  0.17757692    -0.05200
C1379       C  0.95855247  0.28906710  0.21297278    -0.32100
C1380       C  0.93182689  0.25844768  0.23690578     0.36900
H1381       H  0.85764872  0.25555784  0.18528904     0.17300
O1382       O  0.90288108  0.31145351  0.13241488    -0.59600
H1383       H  0.98625529  0.29783624  0.22303702     0.17300
O1384       O  0.94170206  0.23999327  0.26908662    -0.59700
H1385       H  0.95516858  0.25766326  0.29541637     0.44300
H1386       H  0.89148721  0.32377388  0.15019867     0.44300
C1387       C  0.69911642  0.13565099  0.35770077    -0.04800
C1388       C  0.71925359  0.12128064  0.37984028    -0.32200
C1389       C  0.75290474  0.12825074  0.36015847     0.37000
C1390       C  0.76742913  0.15108582  0.31917914    -0.05200
C1391       C  0.74690085  0.16490995  0.29716444    -0.32100
C1392       C  0.71236281  0.15558036  0.31416023     0.36900
H1393       H  0.70963531  0.10590685  0.41328970     0.17300
O1394       O  0.77157216  0.11316594  0.38165382    -0.59600
H1395       H  0.75741032  0.18271727  0.26586856     0.17300
O1396       O  0.69162070  0.16659979  0.28859837    -0.59700
H1397       H  0.70593150  0.19374893  0.28701685     0.44300
H1398       H  0.76280589  0.08920147  0.36527452     0.44300
C1399       C  0.85881347  0.12725616  0.34395344    -0.04800
C1400       C  0.83412128  0.09066074  0.33414475    -0.32200
C1401       C  0.83698559  0.06243589  0.35627616     0.37000
C1402       C  0.86413955  0.07014124  0.39204381    -0.05200
C1403       C  0.88791872  0.10715967  0.40362192    -0.32100
C1404       C  0.88581629  0.13555185  0.37933668     0.36900
H1405       H  0.81361178  0.08381369  0.30641478     0.17300
O1406       O  0.81504133  0.02773487  0.33879599    -0.59600
H1407       H  0.90883214  0.11433577  0.43070893     0.17300
O1408       O  0.91111359  0.17111572  0.38934962    -0.59700
H1409       H  0.93351032  0.17562297  0.37200535     0.44300
H1410       H  0.78985822  0.02123364  0.34800834     0.44300
C1411       C  0.87257298  0.12917717  0.23722524    -0.04800
C1412       C  0.84872257  0.10507497  0.20223007    -0.32200
C1413       C  0.85337569  0.07669009  0.18360239     0.37000
C1414       C  0.88234879  0.07196689  0.19975669    -0.05200
C1415       C  0.90781747  0.09760236  0.23210936    -0.32100
C1416       C  0.90327631  0.12633474  0.25045900     0.36900
H1417       H  0.82524042  0.10701194  0.19096938     0.17300
O1418       O  0.82920802  0.05329067  0.14983981    -0.59600
H1419       H  0.93041083  0.09452483  0.24454147     0.17300
O1420       O  0.92843220  0.15085824  0.28220279    -0.59700
H1421       H  0.94513433  0.17216083  0.26203155     0.44300
H1422       H  0.80653108  0.03742281  0.16811190     0.44300
C1423       C  0.71144031  0.12941504  0.16977430    -0.04800
C1424       C  0.74462804  0.15776976  0.15206235    -0.32200
C1425       C  0.77763441  0.16460667  0.17246928     0.37000
C1426       C  0.77763430  0.14321863  0.21171948    -0.05200
C1427       C  0.74515878  0.11063547  0.22253850    -0.32100
C1428       C  0.71194214  0.10412818  0.20270072     0.36900
H1429       H  0.74472670  0.17699939  0.12582861     0.17300
O1430       O  0.80891935  0.19507338  0.15803970    -0.59600
H1431       H  0.74483335  0.09283891  0.25115816     0.17300
O1432       O  0.68006822  0.07561802  0.22003135    -0.59700
H1433       H  0.67409108  0.08534013  0.24938011     0.44300
H1434       H  0.81687114  0.18744617  0.12847284     0.44300
C1435       C  0.65219568  0.20542250  0.19374093    -0.04800
C1436       C  0.62138341  0.20506484  0.21390908    -0.32200
C1437       C  0.62383230  0.23645895  0.23633528     0.37000
C1438       C  0.65783602  0.26853617  0.24086266    -0.05200
C1439       C  0.68814274  0.26974886  0.21850234    -0.32100
C1440       C  0.68557289  0.23907267  0.19440139     0.36900
H1441       H  0.59518939  0.18028289  0.21284688     0.17300
O1442       O  0.59275013  0.23652459  0.25064940    -0.59600
H1443       H  0.71412933  0.29486316  0.21944773     0.17300
O1444       O  0.71536201  0.24302295  0.16919900    -0.59700
H1445       H  0.73473336  0.24945901  0.19371467     0.44300
H1446       H  0.57742781  0.21299833  0.26773723     0.44300
C1447       C  0.61587198  0.60957141  0.13677972     0.03800
C1448       C  0.61776321  0.64259022  0.15216182    -0.12400
C1449       C  0.64964391  0.67060592  0.17428396     0.01300
C1450       C  0.67928501  0.66461243  0.17972826    -0.10900
C1451       C  0.67827879  0.63255250  0.16329404     0.03800
C1452       C  0.64629145  0.60477225  0.14247477    -0.10300
H1453       H  0.59467751  0.64651847  0.14600280     0.09400
H1454       H  0.70350589  0.68455112  0.19825836     0.06900
H1455       H  0.64539896  0.57995580  0.12951350     0.06800
C1456       C  0.84835647  0.67604992  0.23308314     0.46100
H1457       H  0.85289024  0.67568925  0.19342766    -0.02900
C1458       C  0.83904012  0.67719546  0.32651683     0.46200
H1459       H  0.83497652  0.67764418  0.36629086    -0.02900
C1460       C  0.86282891  0.65478524  0.26204021    -0.16600
C1461       C  0.86712930  0.71475917  0.25499004    -0.16300
C1462       C  0.80819044  0.65861097  0.24772220    -0.16700
C1463       C  0.85792616  0.65518007  0.31153936    -0.16700
C1464       C  0.86259217  0.71573297  0.30439252    -0.16300
C1465       C  0.80320054  0.65998265  0.29712402    -0.16600
C1466       C  0.67639489  0.83853345  0.24000682     0.46100
H1467       H  0.67613111  0.83498669  0.20017220    -0.02900
C1468       C  0.67792501  0.84520490  0.33392122     0.46200
H1469       H  0.67739552  0.84762117  0.37387220    -0.02900
C1470       C  0.65239894  0.85419185  0.25893882    -0.16600
C1471       C  0.66266922  0.80198164  0.26672946    -0.16300
C1472       C  0.71478231  0.86372710  0.26049985    -0.16700
C1473       C  0.65430099  0.85859436  0.30907932    -0.16700
C1474       C  0.66291320  0.80551822  0.31634512    -0.16300
C1475       C  0.71591366  0.86751210  0.31065658    -0.16600
C1476       C  0.51320915  0.90577178  0.13256462     0.03800
C1477       C  0.54655486  0.90658064  0.13923306    -0.12400
C1478       C  0.54662262  0.87402652  0.14976159     0.01300
C1479       C  0.51392887  0.84097629  0.14868413    -0.10900
C1480       C  0.98082379  0.84063231  0.15356024     0.03800
C1481       C  0.98036762  0.87331944  0.14303658    -0.10300
H1482       H  0.57198070  0.93220133  0.13678384     0.09400
H1483       H  0.51494942  0.81589962  0.15354300     0.06900
H1484       H  0.95520024  0.87404552  0.14324396     0.06800
C1485       C  0.90984132  0.50620871  0.14380807     0.03800
C1486       C  0.91225901  0.53902304  0.16066681    -0.12400
C1487       C  0.88326372  0.53816545  0.18663745     0.01300
C1488       C  0.85275798  0.50436217  0.19734113    -0.10900
C1489       C  0.84914192  0.97140646  0.17952408     0.03800
C1490       C  0.87807139  0.97240626  0.15294448    -0.10300
H1491       H  0.93588293  0.56511331  0.15185455     0.09400
H1492       H  0.83087425  0.50387958  0.21852648     0.06900
H1493       H  0.87552130  0.94728963  0.13826128     0.06800
C1494       C  0.50880371  0.90926923  0.42632831     0.03800
C1495       C  0.54193835  0.91044890  0.41509734    -0.12400
C1496       C  0.54204443  0.88087846  0.39105282     0.01300
C1497       C  0.50871591  0.85048646  0.37773872    -0.10900
C1498       C  0.97547536  0.84866860  0.38879710     0.03800
C1499       C  0.97566187  0.87839297  0.41274534    -0.10300
H1500       H  0.56744283  0.93379894  0.42624614     0.09400
H1501       H  0.50861590  0.82789216  0.35845933     0.06900
H1502       H  0.95012936  0.87700317  0.42215984     0.06800
C1503       C  0.90544673  0.51178463  0.43703715     0.03800
C1504       C  0.90263792  0.54342519  0.42716952    -0.12400
C1505       C  0.86849739  0.53985777  0.41469177     0.01300
C1506       C  0.83783466  0.50506396  0.41905669    -0.10900
C1507       C  0.84145031  0.97382294  0.41819902     0.03800
C1508       C  0.87517097  0.97697269  0.42879402    -0.10300
H1509       H  0.92679902  0.57013705  0.42876398     0.09400
H1510       H  0.81087164  0.50153423  0.41515197     0.06900
H1511       H  0.87781779  0.95263066  0.43064481     0.06800
C1512       C  0.61206407  0.61213071  0.42907704     0.03800
C1513       C  0.61455027  0.64690308  0.42911395    -0.12400
C1514       C  0.64447258  0.67704352  0.40755618     0.01300
C1515       C  0.67149034  0.67171633  0.38642817    -0.10900
C1516       C  0.66916101  0.63742268  0.38397110     0.03800
C1517       C  0.63940717  0.60733464  0.40623595    -0.10300
H1518       H  0.59343679  0.65045538  0.44631683     0.09400
H1519       H  0.69451908  0.69462908  0.36958878     0.06900
H1520       H  0.63762272  0.58070404  0.40611538     0.06800
Zn1521     Zn  0.50942508  0.96713622  0.55897948     1.49700
Zn1522     Zn  0.96914165  0.51529816  0.56162722     1.49400
Zn1523     Zn  0.55438464  0.55494631  0.55914383     1.49100
Zn1524     Zn  0.50890038  0.51185093  0.46257707     1.49500
O1525       O  0.51046640  0.51210316  0.53488281    -1.83500
O1526       O  0.96374661  0.93601064  0.59888689    -0.74100
O1527       O  0.98343382  0.56232947  0.59873178    -0.73900
O1528       O  0.58444739  0.53980023  0.59942132    -0.73400
O1529       O  0.93794256  0.97094588  0.60265809    -0.74100
O1530       O  0.55394002  0.97895425  0.60008951    -0.73700
O1531       O  0.54359319  0.59023933  0.59689266    -0.74300
O1532       O  0.55504644  0.55663164  0.43602003    -0.73700
O1533       O  0.93718231  0.51505039  0.50805526    -0.74400
O1534       O  0.58557215  0.58420195  0.50326252    -0.73800
O1535       O  0.96286639  0.51284120  0.43843716    -0.74300
O1536       O  0.50804838  0.96550735  0.43589514    -0.74200
O1537       O  0.50937136  0.93602743  0.50231397    -0.74000
C1538       C  0.93802094  0.94138945  0.61295935     0.77800
C1539       C  0.51424542  0.58995213  0.60842372     0.78300
C1540       C  0.58160676  0.50929506  0.61203532     0.77200
C1541       C  0.58274943  0.58237727  0.45729882     0.77600
C1542       C  0.93736706  0.51407023  0.46197937     0.78800
C1543       C  0.50871023  0.93854364  0.45628171     0.77800
Zn1544     Zn  0.55355824  0.55312974  0.00902510     1.49700
Zn1545     Zn  0.96573111  0.50741726  0.00949166     1.49400
Zn1546     Zn  0.51160946  0.96661223  0.00831703     1.49100
Zn1547     Zn  0.51195920  0.50868077  0.10591350     1.49500
O1548       O  0.51044877  0.50917821  0.03389586    -1.83500
O1549       O  0.53846514  0.58210400  0.96717723    -0.74100
O1550       O  0.93351860  0.95977776  0.97249399    -0.73900
O1551       O  0.55585828  0.98099519  0.96820839    -0.73400
O1552       O  0.97803913  0.55155469  0.96538623    -0.74100
O1553       O  0.58718369  0.54162411  0.96943824    -0.73700
O1554       O  0.96703590  0.93267595  0.97079372    -0.74300
O1555       O  0.51159803  0.96212535  0.13088549    -0.73700
O1556       O  0.93563477  0.50754740  0.06701723    -0.74400
O1557       O  0.51344147  0.93590587  0.06156520    -0.73800
O1558       O  0.96671141  0.50848475  0.13288276    -0.74300
O1559       O  0.55858660  0.55406087  0.13101055    -0.74200
O1560       O  0.58460156  0.58525485  0.06347288    -0.74000
C1561       C  0.50848323  0.57886585  0.95261457     0.77800
C1562       C  0.93778524  0.93272215  0.96072433     0.78300
C1563       C  0.58401624  0.51101585  0.95693631     0.77200
C1564       C  0.51266732  0.93636813  0.10753952     0.77600
C1565       C  0.93903576  0.50755351  0.11300414     0.78800
C1566       C  0.58423609  0.58174596  0.10932242     0.77800
C1567       C  0.51615271  0.62359155  0.62945235     0.03800
C1568       C  0.98447781  0.62680381  0.63509826    -0.12400
C1569       C  0.98740101  0.66139556  0.64467654     0.01300
C1570       C  0.52223084  0.69189048  0.64273449    -0.10900
C1571       C  0.55252485  0.68780842  0.65135275     0.03800
C1572       C  0.55003943  0.65384621  0.64211901    -0.10300
H1573       H  0.95808527  0.60246641  0.63240106     0.09400
H1574       H  0.52606102  0.71926160  0.64267736     0.06900
H1575       H  0.57390454  0.65083723  0.64566568     0.06800
C1576       C  0.50986288  0.60823437  0.92106086     0.03800
C1577       C  0.97790813  0.60672651  0.90307445    -0.12400
C1578       C  0.98007625  0.63627723  0.87633638     0.01300
C1579       C  0.51415777  0.66694832  0.86726134    -0.10900
C1580       C  0.54599474  0.66874292  0.88440222     0.03800
C1581       C  0.54388830  0.63933545  0.91069693    -0.10300
H1582       H  0.95150243  0.58338768  0.91107792     0.09400
H1583       H  0.51591277  0.68991119  0.84705998     0.06900
H1584       H  0.56881568  0.64141184  0.92434040     0.06800
C1585       C  0.84353112  0.68007007  0.72844156     0.46100
H1586       H  0.84308666  0.68371779  0.68860380    -0.02900
C1587       C  0.84379465  0.67072182  0.82176496     0.46200
H1588       H  0.84407664  0.66656356  0.86141537    -0.02900
C1589       C  0.85738529  0.71580083  0.75782359    -0.16600
C1590       C  0.80577703  0.65419064  0.74985984    -0.16300
C1591       C  0.86758822  0.66391314  0.74400087    -0.16700
C1592       C  0.85789204  0.71079593  0.80732892    -0.16700
C1593       C  0.80577460  0.64920150  0.79913390    -0.16300
C1594       C  0.86789037  0.65927819  0.79345777    -0.16600
C1595       C  0.68258502  0.84238442  0.84065783     0.46100
H1596       H  0.68529336  0.83994097  0.88031070    -0.02900
C1597       C  0.67692907  0.84784534  0.74720620     0.46200
H1598       H  0.67332910  0.85023953  0.70787909    -0.02900
C1599       C  0.71915722  0.86024213  0.81351784    -0.16600
C1600       C  0.65975351  0.80533367  0.81581483    -0.16300
C1601       C  0.66412228  0.86456066  0.82664580    -0.16700
C1602       C  0.71649991  0.86366733  0.76396844    -0.16700
C1603       C  0.65701119  0.80824138  0.76638080    -0.16300
C1604       C  0.66203545  0.86817711  0.77723547    -0.16600
C1605       C  0.61204405  0.50959413  0.63923291     0.03800
C1606       C  0.64604421  0.54230886  0.64068227    -0.12400
C1607       C  0.67604326  0.54315598  0.66322910     0.01300
C1608       C  0.67163296  0.51076181  0.68348415    -0.10900
C1609       C  0.63811602  0.97837062  0.68559905     0.03800
C1610       C  0.60808647  0.97768562  0.66248990    -0.10300
H1611       H  0.64939200  0.56683380  0.62320163     0.09400
H1612       H  0.69486951  0.51099300  0.69973142     0.06900
H1613       H  0.58182911  0.95298550  0.66320047     0.06800
C1614       C  0.90622385  0.91204574  0.63917675     0.03800
C1615       C  0.90516999  0.87925780  0.65411251    -0.12400
C1616       C  0.87291679  0.85010456  0.67366489     0.01300
C1617       C  0.84160955  0.85358541  0.67461047    -0.10900
C1618       C  0.84332199  0.88698984  0.66512776     0.03800
C1619       C  0.87554471  0.91618391  0.64737686    -0.10300
H1620       H  0.92931359  0.87667935  0.65105247     0.09400
H1621       H  0.81579582  0.83070683  0.68570083     0.06900
H1622       H  0.87622745  0.94170315  0.63898153     0.06800
C1623       C  0.90765223  0.89965575  0.93749490     0.03800
C1624       C  0.91021432  0.86756555  0.93183613    -0.12400
C1625       C  0.88033671  0.83504063  0.91526528     0.01300
C1626       C  0.84760787  0.83444863  0.90621306    -0.10900
C1627       C  0.84535933  0.86670002  0.90592769     0.03800
C1628       C  0.87575537  0.89938340  0.92217510    -0.10300
H1629       H  0.93520283  0.86766438  0.94050776     0.09400
H1630       H  0.82428752  0.80864203  0.89606416     0.06900
H1631       H  0.87528670  0.92485979  0.92194920     0.06800
C1632       C  0.61397002  0.50938521  0.93115798     0.03800
C1633       C  0.64572611  0.54121223  0.91522531    -0.12400
C1634       C  0.67459888  0.53834879  0.89369749     0.01300
C1635       C  0.67112884  0.50351965  0.88905405    -0.10900
C1636       C  0.64025209  0.97208741  0.90558325     0.03800
C1637       C  0.61160846  0.97498230  0.92564886    -0.10300
H1638       H  0.64821326  0.56790866  0.92045120     0.09400
H1639       H  0.69254694  0.50065116  0.87172300     0.06900
H1640       H  0.58791740  0.95025876  0.93832418     0.06800
C1641       C  0.75158103  0.86282556  0.83736876    -0.04800
C1642       C  0.76961105  0.88829337  0.87449549    -0.32200
C1643       C  0.79940222  0.88949718  0.89845240     0.37000
C1644       C  0.81251812  0.86580581  0.88395093    -0.05200
C1645       C  0.79370131  0.84028114  0.84674118    -0.32100
C1646       C  0.76347823  0.83833488  0.82416021     0.36900
H1647       H  0.76080480  0.90744848  0.88486685     0.17300
O1648       O  0.81454785  0.91316997  0.93667439    -0.59600
H1649       H  0.80206904  0.82126271  0.83467853     0.17300
O1650       O  0.74489961  0.81150732  0.79021232    -0.59700
H1651       H  0.76024334  0.81958294  0.76059040     0.44300
H1652       H  0.80140871  0.89886495  0.96580845     0.44300
C1653       C  0.74831886  0.87789973  0.72966349    -0.04800
C1654       C  0.78265458  0.90590891  0.74497394    -0.32200
C1655       C  0.81441168  0.91206126  0.72098519     0.37000
C1656       C  0.81202135  0.89122675  0.67974516    -0.05200
C1657       C  0.77782346  0.86755371  0.66009712    -0.32100
C1658       C  0.74608987  0.86119982  0.68417700     0.36900
H1659       H  0.78516156  0.92110379  0.77787824     0.17300
O1660       O  0.84758973  0.93589214  0.74075676    -0.59600
H1661       H  0.77566893  0.85169697  0.62793798     0.17300
O1662       O  0.71346436  0.83603949  0.66477505    -0.59700
H1663       H  0.70894715  0.84903370  0.63803475     0.44300
H1664       H  0.85229177  0.92125182  0.76488987     0.44300
C1665       C  0.65051271  0.88147372  0.86255846    -0.04800
C1666       C  0.61752819  0.88078595  0.85329609    -0.32200
C1667       C  0.61178039  0.90871650  0.87099593     0.37000
C1668       C  0.63841773  0.93631053  0.90033929    -0.05200
C1669       C  0.66745086  0.93238931  0.91747014    -0.32100
C1670       C  0.67348287  0.90487395  0.89903347     0.36900
H1671       H  0.59858126  0.86160832  0.82711036     0.17300
O1672       O  0.58241260  0.91114135  0.85489092    -0.59600
H1673       H  0.68752964  0.95293048  0.94134743     0.17300
O1674       O  0.70468136  0.90484457  0.91156703    -0.59700
H1675       H  0.69872715  0.89064683  0.94217490     0.44300
H1676       H  0.59027855  0.92452705  0.82363216     0.44300
C1677       C  0.63712930  0.94707275  0.71323678    -0.04800
C1678       C  0.66077645  0.95584831  0.75319024    -0.32200
C1679       C  0.67123266  0.93136089  0.77046000     0.37000
C1680       C  0.65299623  0.89486287  0.75471021    -0.05200
C1681       C  0.62661172  0.88439636  0.71809296    -0.32100
C1682       C  0.61912091  0.91042378  0.69656486     0.36900
H1683       H  0.67400951  0.98316597  0.76861233     0.17300
O1684       O  0.70157163  0.94386993  0.79926536    -0.59600
H1685       H  0.61262134  0.85632658  0.70527674     0.17300
O1686       O  0.59597167  0.90020652  0.65775319    -0.59700
H1687       H  0.57119371  0.88739443  0.67204737     0.44300
H1688       H  0.69894764  0.95853701  0.82553604     0.44300
C1689       C  0.86283800  0.75046826  0.73531730    -0.04800
C1690       C  0.84498468  0.76769712  0.75588147    -0.32200
C1691       C  0.84992827  0.80076617  0.73777392     0.37000
C1692       C  0.87112831  0.81660212  0.69566693    -0.05200
C1693       C  0.88915334  0.79932725  0.67468583    -0.32100
C1694       C  0.88519525  0.76652452  0.69434368     0.36900
H1695       H  0.82725692  0.75570939  0.78696131     0.17300
O1696       O  0.83475499  0.81808655  0.76278069    -0.59600
H1697       H  0.90587636  0.81087608  0.64268090     0.17300
O1698       O  0.90414442  0.75108073  0.67428249    -0.59700
H1699       H  0.89065789  0.73857781  0.64442924     0.44300
H1700       H  0.80810497  0.80189285  0.75935320     0.44300
C1701       C  0.86964141  0.74069503  0.84415445    -0.04800
C1702       C  0.90092213  0.77476821  0.83580940    -0.32200
C1703       C  0.90740898  0.80570989  0.86286357     0.37000
C1704       C  0.88309234  0.80252469  0.90008052    -0.05200
C1705       C  0.85496941  0.76744531  0.91288803    -0.32100
C1706       C  0.84784454  0.73671649  0.88498022     0.36900
H1707       H  0.91863677  0.77808111  0.80546076     0.17300
O1708       O  0.93461057  0.83948173  0.84835122    -0.59600
H1709       H  0.83608581  0.76445231  0.94153870     0.17300
O1710       O  0.81689238  0.70411497  0.89431045    -0.59700
H1711       H  0.82256424  0.69404763  0.92341759     0.44300
H1712       H  0.95683250  0.84265886  0.86464775     0.44300
C1713       C  0.71188729  0.57726902  0.67034750    -0.04800
C1714       C  0.74315437  0.57360899  0.67314203    -0.32200
C1715       C  0.77251619  0.59753855  0.70136407     0.37000
C1716       C  0.77494811  0.63004489  0.71833013    -0.05200
C1717       C  0.74696863  0.63765737  0.70772303    -0.32100
C1718       C  0.71461303  0.61065300  0.68613015     0.36900
H1719       H  0.74296368  0.54937218  0.65923499     0.17300
O1720       O  0.79678926  0.58704126  0.71635369    -0.59600
H1721       H  0.74884186  0.66302487  0.72012885     0.17300
O1722       O  0.68535460  0.61621434  0.68404562    -0.59700
H1723       H  0.67236676  0.60684090  0.71531060     0.44300
H1724       H  0.78684317  0.57380551  0.74735183     0.44300
C1725       C  0.70880935  0.57059346  0.87547468    -0.04800
C1726       C  0.74219258  0.57131580  0.88202176    -0.32200
C1727       C  0.77382328  0.59693073  0.85801402     0.37000
C1728       C  0.77304502  0.62346269  0.82786463    -0.05200
C1729       C  0.74062742  0.62490450  0.82460507    -0.32100
C1730       C  0.70849191  0.59826594  0.84695581     0.36900
H1731       H  0.74355101  0.55086925  0.90441036     0.17300
O1732       O  0.80464877  0.59406541  0.86153761    -0.59600
H1733       H  0.73993789  0.64628042  0.80369775     0.17300
O1734       O  0.67675557  0.59863161  0.83866100    -0.59700
H1735       H  0.66606002  0.58311737  0.80948677     0.44300
H1736       H  0.81460925  0.60356194  0.89423764     0.44300
C1737       C  0.94736871  0.63761651  0.86031529    -0.04800
C1738       C  0.94325088  0.66720497  0.87563864    -0.32200
C1739       C  0.91678833  0.67369101  0.85535539     0.37000
C1740       C  0.89369175  0.65040543  0.81873261    -0.05200
C1741       C  0.89666460  0.61974568  0.80477963    -0.32100
C1742       C  0.92339109  0.61332215  0.82523782     0.36900
H1743       H  0.96178680  0.68639010  0.90218145     0.17300
O1744       O  0.91590409  0.70468848  0.86876183    -0.59600
H1745       H  0.87890451  0.60137272  0.77700053     0.17300
O1746       O  0.92692441  0.58431248  0.80918844    -0.59700
H1747       H  0.94272015  0.59349456  0.78003578     0.44300
H1748       H  0.90450479  0.69933848  0.90141727     0.44300
C1749       C  0.63771931  0.77064877  0.84359033    -0.04800
C1750       C  0.63493909  0.73769362  0.82678070    -0.32200
C1751       C  0.60636692  0.70379130  0.84227164     0.37000
C1752       C  0.58097709  0.70264352  0.87624120    -0.05200
C1753       C  0.58629420  0.73534328  0.89723361    -0.32100
C1754       C  0.61454839  0.76920469  0.88153161     0.36900
H1755       H  0.65306029  0.73825588  0.79851834     0.17300
O1756       O  0.60183720  0.67216674  0.82128287    -0.59600
H1757       H  0.56688726  0.73471549  0.92352677     0.17300
O1758       O  0.61614923  0.80050326  0.89917245    -0.59700
H1759       H  0.62866000  0.80501394  0.93088656     0.44300
H1760       H  0.58785516  0.66919620  0.79117505     0.44300
C1761       C  0.95600283  0.66565353  0.66321932    -0.04800
C1762       C  0.91994753  0.63887646  0.65257473    -0.32200
C1763       C  0.89035455  0.63846656  0.67654538     0.37000
C1764       C  0.89637783  0.66524545  0.71172869    -0.05200
C1765       C  0.93157286  0.69358236  0.71936750    -0.32100
C1766       C  0.96105217  0.69439124  0.69575565     0.36900
H1767       H  0.91437413  0.61751203  0.62639584     0.17300
O1768       O  0.85591809  0.61137624  0.66575703    -0.59600
H1769       H  0.93650467  0.71485814  0.74558896     0.17300
O1770       O  0.99456524  0.72260032  0.70797857    -0.59700
H1771       H  0.99668363  0.74453484  0.69143120     0.44300
H1772       H  0.85414523  0.58854200  0.67879002     0.44300
C1773       C  0.58157181  0.71640591  0.68162103    -0.04800
C1774       C  0.57032925  0.72863442  0.72209557    -0.32200
C1775       C  0.59421736  0.76028163  0.74673615     0.37000
C1776       C  0.63136596  0.77733319  0.73592417    -0.05200
C1777       C  0.64372476  0.76298581  0.69892331    -0.32100
C1778       C  0.61882415  0.73332388  0.67050726     0.36900
H1779       H  0.54243204  0.71387669  0.73407556     0.17300
O1780       O  0.58114833  0.77507739  0.78052629    -0.59600
H1781       H  0.67246955  0.77442280  0.69233328     0.17300
O1782       O  0.63108085  0.72118651  0.63255760    -0.59700
H1783       H  0.62973869  0.73455855  0.60374962     0.44300
H1784       H  0.56614752  0.75513707  0.80363424     0.44300
C1785       C  0.62582562  0.85860310  0.22724768    -0.04800
C1786       C  0.59180533  0.84963309  0.24680835    -0.32200
C1787       C  0.56929997  0.86019539  0.22431096     0.37000
C1788       C  0.57649565  0.87353123  0.17652699    -0.05200
C1789       C  0.60830644  0.87888760  0.15361175    -0.32100
C1790       C  0.63310733  0.87167643  0.17863337     0.36900
H1791       H  0.58243737  0.83491191  0.28055190     0.15700
O1792       O  0.53922785  0.85601368  0.24887203    -0.59600
H1793       H  0.61344350  0.88764676  0.11608128     0.17300
O1794       O  0.66342667  0.87649056  0.15441496    -0.59700
H1795       H  0.65470193  0.85561087  0.13145632     0.44300
H1796       H  0.54699284  0.88008565  0.26440334     0.44300
C1797       C  0.57631109  0.88041528  0.37971336    -0.04800
C1798       C  0.60338035  0.90773536  0.35038301    -0.32200
C1799       C  0.63129523  0.90278901  0.33005344     0.37000
C1800       C  0.63222232  0.87020739  0.33916295    -0.05200
C1801       C  0.60779868  0.84523410  0.37309888    -0.32100
C1802       C  0.57997856  0.85000250  0.39304691     0.36900
H1803       H  0.60146851  0.93166440  0.34049180     0.17300
O1804       O  0.65655611  0.92898535  0.29976855    -0.59600
H1805       H  0.60848125  0.82039497  0.38129156     0.17300
O1806       O  0.55504799  0.82350400  0.42326286    -0.59700
H1807       H  0.56430820  0.83198414  0.45651270     0.44300
H1808       H  0.64305172  0.92850934  0.27019706     0.44300
C1809       C  0.81367271  0.93727692  0.18729050    -0.04800
C1810       C  0.78175646  0.93884488  0.17893123    -0.32200
C1811       C  0.74882058  0.91352613  0.20010752     0.37000
C1812       C  0.74647763  0.88414804  0.22741762    -0.05200
C1813       C  0.77726106  0.87968900  0.23056619    -0.32100
C1814       C  0.81096033  0.90639127  0.21129109     0.36900
H1815       H  0.78322115  0.96233808  0.16058445     0.17300
O1816       O  0.72114396  0.92153168  0.20105979    -0.59600
H1817       H  0.77597029  0.85746470  0.25194064     0.17300
O1818       O  0.84141387  0.90361541  0.21969486    -0.59700
H1819       H  0.85019510  0.91477952  0.25209992     0.44300
H1820       H  0.72525873  0.93667384  0.23054941     0.44300
C1821       C  0.81323570  0.94239462  0.39104068    -0.04800
C1822       C  0.78639670  0.91099966  0.41418954    -0.32200
C1823       C  0.75527000  0.88535633  0.38848600     0.37000
C1824       C  0.74943601  0.89271718  0.33986200    -0.05200
C1825       C  0.77605801  0.92578192  0.31917659    -0.32100
C1826       C  0.80879737  0.94813938  0.34211250     0.36900
H1827       H  0.78914207  0.90668722  0.45232387     0.17300
O1828       O  0.73014492  0.85448516  0.41231141    -0.59600
H1829       H  0.77174197  0.93570687  0.28552074     0.17300
O1830       O  0.83536342  0.97775450  0.31755533    -0.59700
H1831       H  0.85177873  0.96934472  0.30423390     0.44300
H1832       H  0.74350643  0.84219931  0.42419400     0.44300
C1833       C  0.64693105  0.71339412  0.40046468    -0.04800
C1834       C  0.61648837  0.71527524  0.38394182    -0.32200
C1835       C  0.62099372  0.74704537  0.36086364     0.37000
C1836       C  0.65620486  0.77569714  0.35037983    -0.05200
C1837       C  0.68602027  0.77544105  0.37125159    -0.32100
C1838       C  0.68138208  0.74555604  0.39880443     0.36900
H1839       H  0.58952725  0.69156284  0.38616120     0.17300
O1840       O  0.59109918  0.74919654  0.34670541    -0.59600
H1841       H  0.71319555  0.79765369  0.36416748     0.17300
O1842       O  0.71071852  0.74714462  0.42245250    -0.59700
H1843       H  0.73032472  0.75443892  0.39790745     0.44300
H1844       H  0.58048840  0.75258962  0.37708352     0.44300
C1845       C  0.94109159  0.81488351  0.37562631    -0.04800
C1846       C  0.91654642  0.81635837  0.34281717    -0.32200
C1847       C  0.88837186  0.78394631  0.32205393     0.37000
C1848       C  0.88454022  0.74956760  0.33445948    -0.05200
C1849       C  0.90615927  0.74826755  0.37188272    -0.32100
C1850       C  0.93456664  0.78035048  0.39178227     0.36900
H1851       H  0.92045449  0.84268928  0.33119364     0.17300
O1852       O  0.86447199  0.78578498  0.29009756    -0.59600
H1853       H  0.90267009  0.72234495  0.38344430     0.17300
O1854       O  0.95715269  0.77765010  0.42505273    -0.59700
H1855       H  0.94819506  0.78058007  0.45711610     0.44300
H1856       H  0.87937313  0.80518984  0.26627548     0.44300
C1857       C  0.89522296  0.74619746  0.22725457    -0.04800
C1858       C  0.88589154  0.76437856  0.19228506    -0.32200
C1859       C  0.91296359  0.79513325  0.16743698     0.37000
C1860       C  0.95001223  0.80792499  0.17757700    -0.05200
C1861       C  0.95855240  0.78906705  0.21297282    -0.32100
C1862       C  0.93182680  0.75844763  0.23690579     0.36900
H1863       H  0.85764866  0.75555782  0.18528900     0.17300
O1864       O  0.90288112  0.81145346  0.13241480    -0.59600
H1865       H  0.98625521  0.79783620  0.22303708     0.17300
O1866       O  0.94170197  0.73999321  0.26908663    -0.59700
H1867       H  0.95516849  0.75766320  0.29541638     0.44300
H1868       H  0.89148743  0.82377410  0.15019860     0.44300
C1869       C  0.69911649  0.63565097  0.35770084    -0.04800
C1870       C  0.71925366  0.62128059  0.37984033    -0.32200
C1871       C  0.75290480  0.62825070  0.36015847     0.37000
C1872       C  0.76742917  0.65108579  0.31917913    -0.05200
C1873       C  0.74690090  0.66490996  0.29716446    -0.32100
C1874       C  0.71236287  0.65558038  0.31416030     0.36900
H1875       H  0.70963542  0.60590679  0.41328975     0.17300
O1876       O  0.77157228  0.61316593  0.38165378    -0.59600
H1877       H  0.75741034  0.68271725  0.26586854     0.17300
O1878       O  0.69162070  0.66659973  0.28859840    -0.59700
H1879       H  0.70593143  0.69374888  0.28701682     0.44300
H1880       H  0.76280602  0.58920145  0.36527451     0.44300
C1881       C  0.85881351  0.62725620  0.34395345    -0.04800
C1882       C  0.83412131  0.59066080  0.33414481    -0.32200
C1883       C  0.83698557  0.56243591  0.35627620     0.37000
C1884       C  0.86413955  0.57014125  0.39204379    -0.05200
C1885       C  0.88791876  0.60715967  0.40362182    -0.32100
C1886       C  0.88581636  0.63555188  0.37933662     0.36900
H1887       H  0.81361183  0.58381382  0.30641484     0.17300
O1888       O  0.81504129  0.52773492  0.33879603    -0.59600
H1889       H  0.90883219  0.61433576  0.43070879     0.17300
O1890       O  0.91111357  0.67111574  0.38934967    -0.59700
H1891       H  0.93351048  0.67562306  0.37200543     0.44300
H1892       H  0.78985820  0.52123372  0.34800839     0.44300
C1893       C  0.87257293  0.62917712  0.23722525    -0.04800
C1894       C  0.84872252  0.60507493  0.20223007    -0.32200
C1895       C  0.85337568  0.57669008  0.18360238     0.37000
C1896       C  0.88234885  0.57196693  0.19975660    -0.05200
C1897       C  0.90781749  0.59760238  0.23210932    -0.32100
C1898       C  0.90327628  0.62633471  0.25045902     0.36900
H1899       H  0.82524035  0.60701187  0.19096940     0.17300
O1900       O  0.82920798  0.55329062  0.14983984    -0.59600
H1901       H  0.93041088  0.59452490  0.24454145     0.17300
O1902       O  0.92843215  0.65085821  0.28220282    -0.59700
H1903       H  0.94513427  0.67216081  0.26203157     0.44300
H1904       H  0.80653104  0.53742281  0.16811196     0.44300
C1905       C  0.71144032  0.62941500  0.16977428    -0.04800
C1906       C  0.74462803  0.65776972  0.15206232    -0.32200
C1907       C  0.77763441  0.66460667  0.17246925     0.37000
C1908       C  0.77763432  0.64321867  0.21171951    -0.05200
C1909       C  0.74515883  0.61063552  0.22253858    -0.32100
C1910       C  0.71194219  0.60412816  0.20270073     0.36900
H1911       H  0.74472667  0.67699933  0.12582858     0.17300
O1912       O  0.80891933  0.69507339  0.15803968    -0.59600
H1913       H  0.74483343  0.59283899  0.25115828     0.17300
O1914       O  0.68006832  0.57561795  0.22003133    -0.59700
H1915       H  0.67409106  0.58534012  0.24938004     0.44300
H1916       H  0.81687126  0.68744612  0.12847286     0.44300
C1917       C  0.65219573  0.70542252  0.19374091    -0.04800
C1918       C  0.62138346  0.70506487  0.21390908    -0.32200
C1919       C  0.62383235  0.73645898  0.23633531     0.37000
C1920       C  0.65783609  0.76853619  0.24086267    -0.05200
C1921       C  0.68814281  0.76974889  0.21850231    -0.32100
C1922       C  0.68557296  0.73907269  0.19440138     0.36900
H1923       H  0.59518941  0.68028293  0.21284684     0.17300
O1924       O  0.59275025  0.73652476  0.25064932    -0.59600
H1925       H  0.71412940  0.79486319  0.21944766     0.17300
O1926       O  0.71536210  0.74302295  0.16919907    -0.59700
H1927       H  0.73473344  0.74945900  0.19371477     0.44300
H1928       H  0.57742782  0.71299839  0.26773746     0.44300
loop_ 
_geom_bond_atom_site_label_1 
_geom_bond_atom_site_label_2 
_geom_bond_distance 
_geom_bond_site_symmetry_2 
_ccdc_geom_bond_type 
C1            C2   1.413       .  A
C1            C6   1.408       .  A
C1          C120   1.478       .  S
C2            C3   1.417       .  A
C2            H7   1.082       .  S
C3            C4   1.405       .  A
C3          C471   1.509       .  S
C4            C5   1.400       .  A
C4            H8   1.079       .  S
C5            C6   1.401       .  A
C5          C459   1.485       .  S
C6            H9   1.084       .  S
C10          H11   1.110       .  S
C10          C16   1.534       .  S
C10          C15   1.536       .  S
C10          C14   1.536       .  S
C12          H13   1.111       .  S
C12          C18   1.546       .  S
C12          C17   1.547       .  S
C12          C19   1.549       .  S
C14          C17   1.381       .  D
C14         C447   1.493       .  S
C15          C18   1.378       .  D
C15         C411   1.479       .  S
C16          C19   1.383       .  D
C16         C462   1.501       .  S
C17         C435   1.492       .  S
C18         C402   1.504       .  S
C19         C426   1.495       .  S
C20          H21   1.107       .  S
C20          C26   1.543       .  S
C20          C25   1.535       .  S
C20          C24   1.547       .  S
C22          H23   1.107       .  S
C22          C28   1.538       .  S
C22          C27   1.533       .  S
C22          C29   1.542       .  S
C24          C27   1.391       .  D
C24         C339   1.509       .  S
C25          C28   1.375       .  D
C25         C474   1.495       .  S
C26          C29   1.389       .  D
C26         C366   1.491       .  S
C27         C354   1.497       .  S
C28         C390   1.477       .  S
C29         C378   1.516       .  S
C30          C31   1.408       .  A
C30         C999   1.413   1_455  A
C30         C118   1.470       .  S
C31          C32   1.400       .  A
C31          H36   1.084       .  S
C32          C33   1.393       .  A
C32         C342   1.475       .  S
C33         C998   1.400   1_455  A
C33          H37   1.084       .  S
C34          C35   1.414       .  A
C34         C997   1.400       .  A
C34         C414   1.500       .  S
C35         C994   1.413       .  A
C35          H38   1.081       .  S
C39          C40   1.408       .  A
C39         C526   1.413   1_545  A
C39         C119   1.475       .  S
C40          C41   1.403       .  A
C40          H45   1.084       .  S
C41          C42   1.398       .  A
C41         C450   1.483       .  S
C42         C525   1.403   1_545  A
C42          H46   1.085       .  S
C43          C44   1.407       .  A
C43         C524   1.403       .  A
C43         C363   1.491       .  S
C44         C521   1.413       .  A
C44          H47   1.083       .  S
C48          C49   1.412       .  A
C48        C1017   1.411   1_455  A
C48          C97   1.481       .  S
C49          C50   1.408       .  A
C49          H54   1.084       .  S
C50          C51   1.404       .  A
C50         C351   1.492       .  S
C51        C1016   1.403   1_455  A
C51          H55   1.085       .  S
C52          C53   1.407       .  A
C52        C1015   1.403       .  A
C52         C399   1.490       .  S
C53        C1012   1.411       .  A
C53          H56   1.084       .  S
C57          C58   1.419       .  A
C57         C544   1.406   1_545  A
C57          C96   1.478       .  S
C58          C59   1.420       .  A
C58          H63   1.082       .  S
C59          C60   1.399       .  A
C59         C438   1.510       .  S
C60         C543   1.395   1_545  A
C60          H64   1.081       .  S
C61          C62   1.398       .  A
C61         C542   1.395       .  A
C61         C375   1.473       .  S
C62         C539   1.406       .  A
C62          H65   1.084       .  S
C66          C67   1.411       .  A
C66          C71   1.415       .  A
C66          C95   1.473       .  S
C67          C68   1.404       .  A
C67          H72   1.084       .  S
C68          C69   1.395       .  A
C68         C387   1.491       .  S
C69          C70   1.396       .  A
C69          H73   1.078       .  S
C70          C71   1.408       .  A
C70         C423   1.491       .  S
C71          H74   1.083       .  S
Zn75         O84   2.041       .  S
Zn75         O91   2.033       .  S
Zn75       O1044   2.036   1_455  S
Zn75        O561   1.984       .  S
Zn76         O81   2.031       .  S
Zn76         O87   2.003       .  S
Zn76        O565   2.014   1_545  S
Zn76       O1043   1.960       .  S
Zn77         O82   2.018       .  S
Zn77         O85   2.037       .  S
Zn77         O88   2.003       .  S
Zn77         O79   1.957       .  S
Zn78         O86   2.061       .  S
Zn78       O1053   2.081   1_455  S
Zn78        O572   2.063   1_545  S
Zn78         O79   1.994       .  S
O79        Zn557   1.984   1_545  S
O79       Zn1040   1.960   1_455  S
O80       Zn1039   2.036       .  S
O80          C92   1.276       .  A
O81        C1057   1.273       .  A
O82          C94   1.275       .  A
O83        Zn558   2.014       .  S
O83          C92   1.276       .  A
O84         C576   1.275       .  A
O85          C93   1.275       .  A
O86          C95   1.278       .  A
O87          C96   1.271       .  A
O88          C95   1.271       .  A
O89       Zn1042   2.081       .  S
O89          C96   1.280       .  A
O90        Zn560   2.063       .  S
O90          C97   1.278       .  A
O91          C97   1.275       .  A
C92         C168   1.486       .  S
C93         C121   1.491       .  S
C93        O1045   1.273   1_455  A
C94         C159   1.488       .  S
C94         O566   1.275   1_545  A
Zn98        O103   2.001   1_554  S
Zn98        O107   2.029   1_554  S
Zn98        O114   2.012       .  S
Zn98        O102   1.967       .  S
Zn99        O106   2.058   1_554  S
Zn99        O110   2.032       .  S
Zn99        O586   2.050   1_544  S
Zn99       O1066   1.978       .  S
Zn100       O105   1.991   1_554  S
Zn100       O111   1.983       .  S
Zn100      O1072   2.001   1_454  S
Zn100       O584   1.943       .  S
Zn101       O113   2.070       .  S
Zn101       O591   2.068   1_545  S
Zn101      O1076   2.048   1_455  S
Zn101       O102   1.987       .  S
O102      Zn1063   1.978   1_455  S
O102       Zn582   1.943   1_545  S
O103        C115   1.274       .  A
O104       Zn581   2.050   1_556  S
O104        C116   1.277       .  A
O105        C599   1.272       .  A
O106       C1079   1.279       .  A
O107        C117   1.272       .  A
O108      Zn1064   2.001   1_556  S
O108        C116   1.271       .  A
O109       Zn583   2.068       .  S
O109        C118   1.277       .  A
O110        C119   1.276       .  A
O111        C118   1.268       .  A
O112      Zn1065   2.048       .  S
O112        C119   1.278       .  A
O113        C120   1.279       .  A
O114        C120   1.272       .  A
C115        C130   1.488       .  S
C115       O1070   1.279   1_455  A
C116        C177   1.488       .  S
C117        C186   1.482       .  S
C117        O587   1.272   1_545  A
C121        C126   1.411       .  A
C121       C1086   1.420   1_455  A
C122        C123   1.420       .  A
C122       C1085   1.420       .  A
C122        H127   1.081       .  S
C123       C1088   1.395       .  A
C123        C315   1.513       .  S
C124        C125   1.396       .  A
C124       C1087   1.395   1_455  A
C124        H128   1.079       .  S
C125        C126   1.400       .  A
C125        C327   1.480       .  S
C126        H129   1.083       .  S
C130        C135   1.414       .  A
C130       C1095   1.414   1_455  A
C131        C132   1.408       .  A
C131       C1094   1.414       .  A
C131        H136   1.083       .  S
C132       C1097   1.401       .  A
C132        C291   1.482       .  S
C133        C134   1.396       .  A
C133       C1096   1.401   1_455  A
C133        H137   1.085       .  S
C134        C135   1.398       .  A
C134        C306   1.477       .  S
C135        H138   1.083       .  S
C139        H140   1.111       .  S
C139        C145   1.540       .  S
C139        C144   1.536       .  S
C139        C143   1.542       .  S
C141        H142   1.108       .  S
C141        C147   1.536       .  S
C141        C146   1.535       .  S
C141        C148   1.535       .  S
C143        C146   1.383       .  D
C143        C243   1.493       .  S
C144        C147   1.375       .  D
C144        C270   1.476       .  S
C145        C148   1.378       .  D
C145        C318   1.485       .  S
C146        C255   1.494       .  S
C147        C282   1.493       .  S
C148        C294   1.492       .  S
C149        H150   1.110       .  S
C149        C155   1.534       .  S
C149        C154   1.528       .  S
C149        C153   1.537       .  S
C151        H152   1.107       .  S
C151        C157   1.540       .  S
C151        C156   1.537       .  S
C151        C158   1.529       .  S
C153        C156   1.384       .  D
C153        C195   1.479       .  S
C154        C157   1.379       .  D
C154        C303   1.495       .  S
C155        C158   1.379       .  D
C155        C219   1.488       .  S
C156        C207   1.504       .  S
C157        C330   1.474       .  S
C158        C234   1.489       .  S
C159        C160   1.415       .  A
C159        C646   1.420   1_545  A
C160        C161   1.400       .  A
C160        H165   1.082       .  S
C161        C162   1.396       .  A
C161        C267   1.497       .  S
C162        C645   1.398   1_545  A
C162        H166   1.078       .  S
C163        C164   1.411       .  A
C163        C644   1.398       .  A
C163        C231   1.504       .  S
C164        C641   1.420       .  A
C164        H167   1.082       .  S
C168        C169   1.418       .  A
C168        C173   1.410       .  A
C169        C170   1.413       .  A
C169        H174   1.083       .  S
C170        C171   1.403       .  A
C170        C246   1.501       .  S
C171        C172   1.394       .  A
C171        H175   1.082       .  S
C172        C173   1.395       .  A
C172        C210   1.476       .  S
C173        H176   1.084       .  S
C177        C178   1.413       .  A
C177        C182   1.411       .  A
C178        C179   1.402       .  A
C178        H183   1.083       .  S
C179        C180   1.397       .  A
C179        C258   1.486       .  S
C180        C181   1.404       .  A
C180        H184   1.081       .  S
C181        C182   1.412       .  A
C181        C198   1.502       .  S
C182        H185   1.080       .  S
C186        C187   1.416       .  A
C186        C673   1.406   1_545  A
C187        C188   1.414       .  A
C187        H192   1.082       .  S
C188        C189   1.402       .  A
C188        C279   1.497       .  S
C189        C672   1.396   1_545  A
C189        H193   1.081       .  S
C190        C191   1.390       .  A
C190        C671   1.396       .  A
C190        C222   1.473       .  S
C191        C668   1.406       .  A
C191        H194   1.084       .  S
C195        C196   1.402       .  A
C195        C200   1.398       .  A
C196        C197   1.404       .  A
C196        H201   1.078       .  S
C197        C198   1.415       .  A
C197        O202   1.370       .  S
C198        C199   1.411       .  A
C199        C200   1.390       .  A
C199        H203   1.073       .  S
C200        O204   1.373       .  S
O202        H206   0.992       .  S
O204        H205   0.991       .  S
C207        C208   1.408       .  A
C207        C212   1.415       .  A
C208        C209   1.400       .  A
C208        H213   1.082       .  S
C209        C210   1.406       .  A
C209        O214   1.372       .  S
C210        C211   1.398       .  A
C211        C212   1.398       .  A
C211        H215   1.084       .  S
C212        O216   1.366       .  S
O214        H218   0.992       .  S
O216        H217   0.992       .  S
C219        C220   1.406       .  A
C219        C224   1.406       .  A
C220        C221   1.397       .  A
C220        H225   1.084       .  S
C221        C222   1.406       .  A
C221        O226   1.372       .  S
C222        C223   1.402       .  A
C223        C224   1.395       .  A
C223        H227   1.084       .  S
C224        O228   1.367       .  S
O226        H230   0.992       .  S
O228        H229   0.992       .  S
C231        C232   1.411       .  A
C231        C236   1.414       .  A
C232        C233   1.391       .  A
C232        H237   1.083       .  S
C233        C234   1.401       .  A
C233        O238   1.376       .  S
C234        C235   1.407       .  A
C235        C236   1.413       .  A
C235        H239   1.083       .  S
C236        O240   1.370       .  S
O238        H242   0.990       .  S
O240        H241   0.992       .  S
C243        C244   1.397       .  A
C243        C248   1.411       .  A
C244        C245   1.392       .  A
C244        H249   1.083       .  S
C245        C246   1.414       .  A
C245        O250   1.369       .  S
C246        C247   1.409       .  A
C247        C248   1.412       .  A
C247        H251   1.083       .  S
C248        O252   1.371       .  S
O250        H254   0.992       .  S
O252        H253   0.991       .  S
C255        C256   1.406       .  A
C255        C260   1.409       .  A
C256        C257   1.401       .  A
C256        H261   1.083       .  S
C257        C258   1.409       .  A
C257        O262   1.371       .  S
C258        C259   1.406       .  A
C259        C260   1.400       .  A
C259        H263   1.084       .  S
C260        O264   1.371       .  S
O262        H266   0.991       .  S
O264        H265   0.992       .  S
C267        C268   1.408       .  A
C267        C272   1.416       .  A
C268        C269   1.388       .  A
C268        H273   1.083       .  S
C269        C270   1.397       .  A
C269        O274   1.369       .  S
C270        C271   1.403       .  A
C271        C272   1.407       .  A
C271        H275   1.083       .  S
C272        O276   1.371       .  S
O274        H278   0.992       .  S
O276        H277   0.992       .  S
C279        C280   1.410       .  A
C279        C284   1.410       .  A
C280        C281   1.400       .  A
C280        H285   1.083       .  S
C281        C282   1.405       .  A
C281        O286   1.372       .  S
C282        C283   1.406       .  A
C283        C284   1.404       .  A
C283        H287   1.081       .  S
C284        O288   1.371       .  S
O286        H290   0.992       .  S
O288        H289   0.992       .  S
C291        C292   1.402       .  A
C291        C296   1.408       .  A
C292        C293   1.396       .  A
C292        H297   1.084       .  S
C293        C294   1.409       .  A
C293        O298   1.371       .  S
C294        C295   1.407       .  A
C295        C296   1.406       .  A
C295        H299   1.083       .  S
C296        O300   1.371       .  S
O298        H302   0.992       .  S
O300        H301   0.992       .  S
C303        C304   1.407       .  A
C303        C308   1.412       .  A
C304        C305   1.402       .  A
C304        H309   1.083       .  S
C305        C306   1.405       .  A
C305        O310   1.371       .  S
C306        C307   1.401       .  A
C307        C308   1.398       .  A
C307        H311   1.084       .  S
C308        O312   1.370       .  S
O310        H314   0.992       .  S
O312        H313   0.992       .  S
C315        C316   1.408       .  A
C315        C320   1.431       .  A
C316        C317   1.407       .  A
C316        H321   1.082       .  S
C317        C318   1.408       .  A
C317        O322   1.366       .  S
C318        C319   1.388       .  A
C319        C320   1.391       .  A
C319        H323   1.085       .  S
C320        O324   1.366       .  S
O322        H326   0.992       .  S
O324        H325   0.992       .  S
C327        C328   1.404       .  A
C327        C332   1.405       .  A
C328        C329   1.386       .  A
C328        H333   1.077       .  S
C329        C330   1.399       .  A
C329        O334   1.376       .  S
C330        C331   1.408       .  A
C331        C332   1.406       .  A
C331        H335   1.079       .  S
C332        O336   1.370       .  S
O334        H338   0.992       .  S
O336        H337   0.992       .  S
C339        C340   1.402       .  A
C339        C344   1.423       .  A
C340        C341   1.383       .  A
C340        H345   1.078       .  S
C341        C342   1.405       .  A
C341        O346   1.372       .  S
C342        C343   1.399       .  A
C343        C344   1.411       .  A
C343        H347   1.083       .  S
C344        O348   1.368       .  S
O346        H350   0.992       .  S
O348        H349   0.992       .  S
C351        C352   1.407       .  A
C351        C356   1.411       .  A
C352        C353   1.411       .  A
C352        H357   1.083       .  S
C353        C354   1.412       .  A
C353        O358   1.373       .  S
C354        C355   1.403       .  A
C355        C356   1.399       .  A
C355        H359   1.082       .  S
C356        O360   1.372       .  S
O358        H362   0.992       .  S
O360        H361   0.991       .  S
C363        C364   1.405       .  A
C363        C368   1.411       .  A
C364        C365   1.394       .  A
C364        H369   1.084       .  S
C365        C366   1.408       .  A
C365        O370   1.370       .  S
C366        C367   1.408       .  A
C367        C368   1.410       .  A
C367        H371   1.083       .  S
C368        O372   1.371       .  S
O370        H374   0.992       .  S
O372        H373   0.992       .  S
C375        C376   1.397       .  A
C375        C380   1.400       .  A
C376        C377   1.413       .  A
C376        H381   1.083       .  S
C377        C378   1.426       .  A
C377        O382   1.370       .  S
C378        C379   1.405       .  A
C379        C380   1.384       .  A
C379        H383   1.071       .  S
C380        O384   1.373       .  S
O382        H386   0.992       .  S
O384        H385   0.991       .  S
C387        C388   1.407       .  A
C387        C392   1.415       .  A
C388        C389   1.405       .  A
C388        H393   1.083       .  S
C389        C390   1.406       .  A
C389        O394   1.371       .  S
C390        C391   1.394       .  A
C391        C392   1.397       .  A
C391        H395   1.081       .  S
C392        O396   1.376       .  S
O394        H398   0.991       .  S
O396        H397   0.993       .  S
C399        C400   1.404       .  A
C399        C404   1.409       .  A
C400        C401   1.413       .  A
C400        H405   1.083       .  S
C401        C402   1.414       .  A
C401        O406   1.374       .  S
C402        C403   1.400       .  A
C403        C404   1.400       .  A
C403        H407   1.073       .  S
C404        O408   1.372       .  S
O406        H410   0.992       .  S
O408        H409   0.991       .  S
C411        C412   1.405       .  A
C411        C416   1.396       .  A
C412        C413   1.409       .  A
C412        H417   1.080       .  S
C413        C414   1.412       .  A
C413        O418   1.371       .  S
C414        C415   1.414       .  A
C415        C416   1.388       .  A
C415        H419   1.078       .  S
C416        O420   1.375       .  S
O418        H422   0.992       .  S
O420        H421   0.992       .  S
C423        C424   1.407       .  A
C423        C428   1.411       .  A
C424        C425   1.411       .  A
C424        H429   1.083       .  S
C425        C426   1.411       .  A
C425        O430   1.370       .  S
C426        C427   1.402       .  A
C427        C428   1.392       .  A
C427        H431   1.083       .  S
C428        O432   1.375       .  S
O430        H434   0.992       .  S
O432        H433   0.993       .  S
C435        C436   1.392       .  A
C435        C440   1.411       .  A
C436        C437   1.392       .  A
C436        H441   1.085       .  S
C437        C438   1.427       .  A
C437        O442   1.371       .  S
C438        C439   1.408       .  A
C439        C440   1.410       .  A
C439        H443   1.082       .  S
C440        O444   1.368       .  S
O442        H446   0.993       .  S
O444        H445   0.991       .  S
C447        C448   1.402       .  A
C447        C452   1.412       .  A
C448        C449   1.397       .  A
C448        H453   1.083       .  S
C449        C450   1.410       .  A
C449        O454   1.373       .  S
C450        C451   1.403       .  A
C451        C452   1.405       .  A
C451        H455   1.083       .  S
C452        O456   1.370       .  S
O454        H458   0.992       .  S
O456        H457   0.991       .  S
C459        C460   1.404       .  A
C459        C464   1.407       .  A
C460        C461   1.399       .  A
C460        H465   1.084       .  S
C461        C462   1.408       .  A
C461        O466   1.368       .  S
C462        C463   1.410       .  A
C463        C464   1.405       .  A
C463        H467   1.084       .  S
C464        O468   1.371       .  S
O466        H470   0.992       .  S
O468        H469   0.992       .  S
C471        C472   1.409       .  A
C471        C476   1.420       .  A
C472        C473   1.412       .  A
C472        H477   1.082       .  S
C473        C474   1.408       .  A
C473        O478   1.373       .  S
C474        C475   1.399       .  A
C475        C476   1.404       .  A
C475        H479   1.084       .  S
C476        O480   1.374       .  S
O478        H482   0.992       .  S
O480        H481   0.993       .  S
C483        C484   1.413       .  A
C483        C488   1.408       .  A
C483        C602   1.478       .  S
C484        C485   1.417       .  A
C484        H489   1.082       .  S
C485        C486   1.405       .  A
C485        C953   1.509       .  S
C486        C487   1.400       .  A
C486        H490   1.079       .  S
C487        C488   1.401       .  A
C487        C941   1.485       .  S
C488        H491   1.084       .  S
C492        H493   1.110       .  S
C492        C498   1.534       .  S
C492        C497   1.536       .  S
C492        C496   1.536       .  S
C494        H495   1.111       .  S
C494        C500   1.546       .  S
C494        C499   1.547       .  S
C494        C501   1.549       .  S
C496        C499   1.381       .  D
C496        C929   1.493       .  S
C497        C500   1.378       .  D
C497        C893   1.479       .  S
C498        C501   1.383       .  D
C498        C944   1.501       .  S
C499        C917   1.492       .  S
C500        C884   1.504       .  S
C501        C908   1.495       .  S
C502        H503   1.107       .  S
C502        C508   1.543       .  S
C502        C507   1.535       .  S
C502        C506   1.547       .  S
C504        H505   1.107       .  S
C504        C510   1.538       .  S
C504        C509   1.533       .  S
C504        C511   1.542       .  S
C506        C509   1.391       .  D
C506        C821   1.509       .  S
C507        C510   1.375       .  D
C507        C956   1.495       .  S
C508        C511   1.389       .  D
C508        C848   1.491       .  S
C509        C836   1.497       .  S
C510        C872   1.477       .  S
C511        C860   1.516       .  S
C512        C513   1.408       .  A
C512       C1481   1.413   1_455  A
C512        C600   1.470       .  S
C513        C514   1.400       .  A
C513        H518   1.084       .  S
C514        C515   1.393       .  A
C514        C824   1.475       .  S
C515       C1480   1.400   1_455  A
C515        H519   1.084       .  S
C516       C1479   1.400       .  A
C516        C517   1.414       .  A
C516        C896   1.500       .  S
C517       C1476   1.413       .  A
C517        H520   1.081       .  S
C521        C522   1.408       .  A
C521        C601   1.475       .  S
C522        C523   1.403       .  A
C522        H527   1.084       .  S
C523        C524   1.398       .  A
C523        C932   1.483       .  S
C524        H528   1.085       .  S
C525        C526   1.407       .  A
C525        C845   1.491       .  S
C526        H529   1.083       .  S
C530        C531   1.412       .  A
C530       C1499   1.411   1_455  A
C530        C579   1.481       .  S
C531        C532   1.408       .  A
C531        H536   1.084       .  S
C532        C533   1.404       .  A
C532        C833   1.492       .  S
C533       C1498   1.403   1_455  A
C533        H537   1.085       .  S
C534       C1497   1.403       .  A
C534        C535   1.407       .  A
C534        C881   1.490       .  S
C535       C1494   1.411       .  A
C535        H538   1.084       .  S
C539        C540   1.419       .  A
C539        C578   1.478       .  S
C540        C541   1.420       .  A
C540        H545   1.082       .  S
C541        C542   1.399       .  A
C541        C920   1.510       .  S
C542        H546   1.081       .  S
C543        C544   1.398       .  A
C543        C857   1.473       .  S
C544        H547   1.084       .  S
C548        C549   1.411       .  A
C548        C553   1.415       .  A
C548        C577   1.473       .  S
C549        C550   1.404       .  A
C549        H554   1.084       .  S
C550        C551   1.395       .  A
C550        C869   1.491       .  S
C551        C552   1.396       .  A
C551        H555   1.078       .  S
C552        C553   1.408       .  A
C552        C905   1.491       .  S
C553        H556   1.083       .  S
Zn557      O1526   2.036   1_455  S
Zn557       O566   2.041       .  S
Zn557       O573   2.033       .  S
Zn558       O563   2.031       .  S
Zn558       O569   2.003       .  S
Zn558      O1525   1.960       .  S
Zn559       O564   2.018       .  S
Zn559       O567   2.037       .  S
Zn559       O570   2.003       .  S
Zn559       O561   1.957       .  S
Zn560       O568   2.061       .  S
Zn560      O1535   2.081   1_455  S
Zn560       O561   1.994       .  S
O561      Zn1522   1.960   1_455  S
O562      Zn1521   2.036       .  S
O562        C574   1.276       .  A
O563       C1539   1.273       .  A
O564        C576   1.275       .  A
O565        C574   1.276       .  A
O567        C575   1.275       .  A
O568        C577   1.278       .  A
O569        C578   1.271       .  A
O570        C577   1.271       .  A
O571      Zn1524   2.081       .  S
O571        C578   1.280       .  A
O572        C579   1.278       .  A
O573        C579   1.275       .  A
C574        C650   1.486       .  S
C575        C603   1.491       .  S
C575       O1527   1.273   1_455  A
C576        C641   1.488       .  S
Zn580       O585   2.001   1_554  S
Zn580       O589   2.029   1_554  S
Zn580       O596   2.012       .  S
Zn580       O584   1.967       .  S
Zn581       O588   2.058   1_554  S
Zn581       O592   2.032       .  S
Zn581      O1548   1.978       .  S
Zn582       O587   1.991   1_554  S
Zn582      O1554   2.001   1_454  S
Zn582       O593   1.983       .  S
Zn583      O1558   2.048   1_455  S
Zn583       O595   2.070       .  S
Zn583       O584   1.987       .  S
O584      Zn1545   1.978   1_455  S
O585        C597   1.274       .  A
O586        C598   1.277       .  A
O588       C1561   1.279       .  A
O589        C599   1.272       .  A
O590      Zn1546   2.001   1_556  S
O590        C598   1.271       .  A
O591        C600   1.277       .  A
O592        C601   1.276       .  A
O593        C600   1.268       .  A
O594      Zn1547   2.048       .  S
O594        C601   1.278       .  A
O595        C602   1.279       .  A
O596        C602   1.272       .  A
C597        C612   1.488       .  S
C597       O1552   1.279   1_455  A
C598        C659   1.488       .  S
C599        C668   1.482       .  S
C603       C1568   1.420   1_455  A
C603        C608   1.411       .  A
C604       C1567   1.420       .  A
C604        C605   1.420       .  A
C604        H609   1.081       .  S
C605       C1570   1.395       .  A
C605        C797   1.513       .  S
C606       C1569   1.395   1_455  A
C606        C607   1.396       .  A
C606        H610   1.079       .  S
C607        C608   1.400       .  A
C607        C809   1.480       .  S
C608        H611   1.083       .  S
C612       C1577   1.414   1_455  A
C612        C617   1.414       .  A
C613       C1576   1.414       .  A
C613        C614   1.408       .  A
C613        H618   1.083       .  S
C614       C1579   1.401       .  A
C614        C773   1.482       .  S
C615       C1578   1.401   1_455  A
C615        C616   1.396       .  A
C615        H619   1.085       .  S
C616        C617   1.398       .  A
C616        C788   1.477       .  S
C617        H620   1.083       .  S
C621        H622   1.111       .  S
C621        C627   1.540       .  S
C621        C626   1.536       .  S
C621        C625   1.542       .  S
C623        H624   1.108       .  S
C623        C629   1.536       .  S
C623        C628   1.535       .  S
C623        C630   1.535       .  S
C625        C628   1.383       .  D
C625        C725   1.493       .  S
C626        C629   1.375       .  D
C626        C752   1.476       .  S
C627        C630   1.378       .  D
C627        C800   1.485       .  S
C628        C737   1.494       .  S
C629        C764   1.493       .  S
C630        C776   1.492       .  S
C631        H632   1.110       .  S
C631        C637   1.534       .  S
C631        C636   1.528       .  S
C631        C635   1.537       .  S
C633        H634   1.107       .  S
C633        C639   1.540       .  S
C633        C638   1.537       .  S
C633        C640   1.529       .  S
C635        C638   1.384       .  D
C635        C677   1.479       .  S
C636        C639   1.379       .  D
C636        C785   1.495       .  S
C637        C640   1.379       .  D
C637        C701   1.488       .  S
C638        C689   1.504       .  S
C639        C812   1.474       .  S
C640        C716   1.489       .  S
C641        C642   1.415       .  A
C642        C643   1.400       .  A
C642        H647   1.082       .  S
C643        C644   1.396       .  A
C643        C749   1.497       .  S
C644        H648   1.078       .  S
C645        C646   1.411       .  A
C645        C713   1.504       .  S
C646        H649   1.082       .  S
C650        C651   1.418       .  A
C650        C655   1.410       .  A
C651        C652   1.413       .  A
C651        H656   1.083       .  S
C652        C653   1.403       .  A
C652        C728   1.501       .  S
C653        C654   1.394       .  A
C653        H657   1.082       .  S
C654        C655   1.395       .  A
C654        C692   1.476       .  S
C655        H658   1.084       .  S
C659        C660   1.413       .  A
C659        C664   1.411       .  A
C660        C661   1.402       .  A
C660        H665   1.083       .  S
C661        C662   1.397       .  A
C661        C740   1.486       .  S
C662        C663   1.404       .  A
C662        H666   1.081       .  S
C663        C664   1.412       .  A
C663        C680   1.502       .  S
C664        H667   1.080       .  S
C668        C669   1.416       .  A
C669        C670   1.414       .  A
C669        H674   1.082       .  S
C670        C671   1.402       .  A
C670        C761   1.497       .  S
C671        H675   1.081       .  S
C672        C673   1.390       .  A
C672        C704   1.473       .  S
C673        H676   1.084       .  S
C677        C678   1.402       .  A
C677        C682   1.398       .  A
C678        C679   1.404       .  A
C678        H683   1.078       .  S
C679        C680   1.415       .  A
C679        O684   1.370       .  S
C680        C681   1.411       .  A
C681        C682   1.390       .  A
C681        H685   1.073       .  S
C682        O686   1.373       .  S
O684        H688   0.992       .  S
O686        H687   0.991       .  S
C689        C690   1.408       .  A
C689        C694   1.415       .  A
C690        C691   1.400       .  A
C690        H695   1.082       .  S
C691        C692   1.406       .  A
C691        O696   1.372       .  S
C692        C693   1.398       .  A
C693        C694   1.398       .  A
C693        H697   1.084       .  S
C694        O698   1.366       .  S
O696        H700   0.992       .  S
O698        H699   0.992       .  S
C701        C702   1.406       .  A
C701        C706   1.406       .  A
C702        C703   1.397       .  A
C702        H707   1.084       .  S
C703        C704   1.406       .  A
C703        O708   1.372       .  S
C704        C705   1.402       .  A
C705        C706   1.395       .  A
C705        H709   1.084       .  S
C706        O710   1.367       .  S
O708        H712   0.992       .  S
O710        H711   0.992       .  S
C713        C714   1.411       .  A
C713        C718   1.414       .  A
C714        C715   1.391       .  A
C714        H719   1.083       .  S
C715        C716   1.401       .  A
C715        O720   1.376       .  S
C716        C717   1.407       .  A
C717        C718   1.413       .  A
C717        H721   1.083       .  S
C718        O722   1.370       .  S
O720        H724   0.990       .  S
O722        H723   0.992       .  S
C725        C726   1.397       .  A
C725        C730   1.411       .  A
C726        C727   1.392       .  A
C726        H731   1.083       .  S
C727        C728   1.414       .  A
C727        O732   1.369       .  S
C728        C729   1.409       .  A
C729        C730   1.412       .  A
C729        H733   1.083       .  S
C730        O734   1.371       .  S
O732        H736   0.992       .  S
O734        H735   0.991       .  S
C737        C738   1.406       .  A
C737        C742   1.409       .  A
C738        C739   1.401       .  A
C738        H743   1.083       .  S
C739        C740   1.409       .  A
C739        O744   1.371       .  S
C740        C741   1.406       .  A
C741        C742   1.400       .  A
C741        H745   1.084       .  S
C742        O746   1.371       .  S
O744        H748   0.991       .  S
O746        H747   0.992       .  S
C749        C750   1.408       .  A
C749        C754   1.416       .  A
C750        C751   1.388       .  A
C750        H755   1.083       .  S
C751        C752   1.397       .  A
C751        O756   1.369       .  S
C752        C753   1.403       .  A
C753        C754   1.407       .  A
C753        H757   1.083       .  S
C754        O758   1.371       .  S
O756        H760   0.992       .  S
O758        H759   0.992       .  S
C761        C762   1.410       .  A
C761        C766   1.410       .  A
C762        C763   1.400       .  A
C762        H767   1.083       .  S
C763        C764   1.405       .  A
C763        O768   1.372       .  S
C764        C765   1.406       .  A
C765        C766   1.404       .  A
C765        H769   1.081       .  S
C766        O770   1.371       .  S
O768        H772   0.992       .  S
O770        H771   0.992       .  S
C773        C774   1.402       .  A
C773        C778   1.408       .  A
C774        C775   1.396       .  A
C774        H779   1.084       .  S
C775        C776   1.409       .  A
C775        O780   1.371       .  S
C776        C777   1.407       .  A
C777        C778   1.406       .  A
C777        H781   1.083       .  S
C778        O782   1.371       .  S
O780        H784   0.992       .  S
O782        H783   0.992       .  S
C785        C786   1.407       .  A
C785        C790   1.412       .  A
C786        C787   1.402       .  A
C786        H791   1.083       .  S
C787        C788   1.405       .  A
C787        O792   1.371       .  S
C788        C789   1.401       .  A
C789        C790   1.398       .  A
C789        H793   1.084       .  S
C790        O794   1.370       .  S
O792        H796   0.992       .  S
O794        H795   0.992       .  S
C797        C798   1.408       .  A
C797        C802   1.431       .  A
C798        C799   1.407       .  A
C798        H803   1.082       .  S
C799        C800   1.408       .  A
C799        O804   1.366       .  S
C800        C801   1.388       .  A
C801        C802   1.391       .  A
C801        H805   1.085       .  S
C802        O806   1.366       .  S
O804        H808   0.992       .  S
O806        H807   0.992       .  S
C809        C810   1.404       .  A
C809        C814   1.405       .  A
C810        C811   1.386       .  A
C810        H815   1.077       .  S
C811        C812   1.399       .  A
C811        O816   1.376       .  S
C812        C813   1.408       .  A
C813        C814   1.406       .  A
C813        H817   1.079       .  S
C814        O818   1.370       .  S
O816        H820   0.992       .  S
O818        H819   0.992       .  S
C821        C822   1.402       .  A
C821        C826   1.423       .  A
C822        C823   1.383       .  A
C822        H827   1.078       .  S
C823        C824   1.405       .  A
C823        O828   1.372       .  S
C824        C825   1.399       .  A
C825        C826   1.411       .  A
C825        H829   1.083       .  S
C826        O830   1.368       .  S
O828        H832   0.992       .  S
O830        H831   0.992       .  S
C833        C834   1.407       .  A
C833        C838   1.411       .  A
C834        C835   1.411       .  A
C834        H839   1.083       .  S
C835        C836   1.412       .  A
C835        O840   1.373       .  S
C836        C837   1.403       .  A
C837        C838   1.399       .  A
C837        H841   1.082       .  S
C838        O842   1.372       .  S
O840        H844   0.992       .  S
O842        H843   0.991       .  S
C845        C846   1.405       .  A
C845        C850   1.411       .  A
C846        C847   1.394       .  A
C846        H851   1.084       .  S
C847        C848   1.408       .  A
C847        O852   1.370       .  S
C848        C849   1.408       .  A
C849        C850   1.410       .  A
C849        H853   1.083       .  S
C850        O854   1.371       .  S
O852        H856   0.992       .  S
O854        H855   0.992       .  S
C857        C858   1.397       .  A
C857        C862   1.400       .  A
C858        C859   1.413       .  A
C858        H863   1.083       .  S
C859        C860   1.426       .  A
C859        O864   1.370       .  S
C860        C861   1.405       .  A
C861        C862   1.384       .  A
C861        H865   1.071       .  S
C862        O866   1.373       .  S
O864        H868   0.992       .  S
O866        H867   0.991       .  S
C869        C870   1.407       .  A
C869        C874   1.415       .  A
C870        C871   1.405       .  A
C870        H875   1.083       .  S
C871        C872   1.406       .  A
C871        O876   1.371       .  S
C872        C873   1.394       .  A
C873        C874   1.397       .  A
C873        H877   1.081       .  S
C874        O878   1.376       .  S
O876        H880   0.991       .  S
O878        H879   0.993       .  S
C881        C882   1.404       .  A
C881        C886   1.409       .  A
C882        C883   1.413       .  A
C882        H887   1.083       .  S
C883        C884   1.414       .  A
C883        O888   1.374       .  S
C884        C885   1.400       .  A
C885        C886   1.400       .  A
C885        H889   1.073       .  S
C886        O890   1.372       .  S
O888        H892   0.992       .  S
O890        H891   0.991       .  S
C893        C894   1.405       .  A
C893        C898   1.396       .  A
C894        C895   1.409       .  A
C894        H899   1.080       .  S
C895        C896   1.412       .  A
C895        O900   1.371       .  S
C896        C897   1.414       .  A
C897        C898   1.388       .  A
C897        H901   1.078       .  S
C898        O902   1.375       .  S
O900        H904   0.992       .  S
O902        H903   0.992       .  S
C905        C906   1.407       .  A
C905        C910   1.411       .  A
C906        C907   1.411       .  A
C906        H911   1.083       .  S
C907        C908   1.411       .  A
C907        O912   1.370       .  S
C908        C909   1.402       .  A
C909        C910   1.392       .  A
C909        H913   1.083       .  S
C910        O914   1.375       .  S
O912        H916   0.992       .  S
O914        H915   0.993       .  S
C917        C918   1.392       .  A
C917        C922   1.411       .  A
C918        C919   1.392       .  A
C918        H923   1.085       .  S
C919        C920   1.427       .  A
C919        O924   1.371       .  S
C920        C921   1.408       .  A
C921        C922   1.410       .  A
C921        H925   1.082       .  S
C922        O926   1.368       .  S
O924        H928   0.993       .  S
O926        H927   0.991       .  S
C929        C930   1.402       .  A
C929        C934   1.412       .  A
C930        C931   1.397       .  A
C930        H935   1.083       .  S
C931        C932   1.410       .  A
C931        O936   1.373       .  S
C932        C933   1.403       .  A
C933        C934   1.405       .  A
C933        H937   1.083       .  S
C934        O938   1.370       .  S
O936        H940   0.992       .  S
O938        H939   0.991       .  S
C941        C942   1.404       .  A
C941        C946   1.407       .  A
C942        C943   1.399       .  A
C942        H947   1.084       .  S
C943        C944   1.408       .  A
C943        O948   1.368       .  S
C944        C945   1.410       .  A
C945        C946   1.405       .  A
C945        H949   1.084       .  S
C946        O950   1.371       .  S
O948        H952   0.992       .  S
O950        H951   0.992       .  S
C953        C954   1.409       .  A
C953        C958   1.420       .  A
C954        C955   1.412       .  A
C954        H959   1.082       .  S
C955        C956   1.408       .  A
C955        O960   1.373       .  S
C956        C957   1.399       .  A
C957        C958   1.404       .  A
C957        H961   1.084       .  S
C958        O962   1.374       .  S
O960        H964   0.992       .  S
O962        H963   0.993       .  S
C965        C966   1.413       .  A
C965        C970   1.408       .  A
C965       C1084   1.478       .  S
C966        C967   1.417       .  A
C966        H971   1.082       .  S
C967        C968   1.405       .  A
C967       C1435   1.509       .  S
C968        C969   1.400       .  A
C968        H972   1.079       .  S
C969        C970   1.401       .  A
C969       C1423   1.485       .  S
C970        H973   1.084       .  S
C974        H975   1.110       .  S
C974        C980   1.534       .  S
C974        C979   1.536       .  S
C974        C978   1.536       .  S
C976        H977   1.111       .  S
C976        C982   1.546       .  S
C976        C981   1.547       .  S
C976        C983   1.549       .  S
C978        C981   1.381       .  D
C978       C1411   1.493       .  S
C979        C982   1.378       .  D
C979       C1375   1.479       .  S
C980        C983   1.383       .  D
C980       C1426   1.501       .  S
C981       C1399   1.492       .  S
C982       C1366   1.504       .  S
C983       C1390   1.495       .  S
C984        H985   1.107       .  S
C984        C990   1.543       .  S
C984        C989   1.535       .  S
C984        C988   1.547       .  S
C986        H987   1.107       .  S
C986        C992   1.538       .  S
C986        C991   1.533       .  S
C986        C993   1.542       .  S
C988        C991   1.391       .  D
C988       C1303   1.509       .  S
C989        C992   1.375       .  D
C989       C1438   1.495       .  S
C990        C993   1.389       .  D
C990       C1330   1.491       .  S
C991       C1318   1.497       .  S
C992       C1354   1.477       .  S
C993       C1342   1.516       .  S
C994        C995   1.408       .  A
C994       C1082   1.470       .  S
C995        C996   1.400       .  A
C995       H1000   1.084       .  S
C996        C997   1.393       .  A
C996       C1306   1.475       .  S
C997       H1001   1.084       .  S
C998        C999   1.414       .  A
C998       C1378   1.500       .  S
C999       H1002   1.081       .  S
C1003      C1004   1.408       .  A
C1003      C1490   1.413   1_545  A
C1003      C1083   1.475       .  S
C1004      C1005   1.403       .  A
C1004      H1009   1.084       .  S
C1005      C1006   1.398       .  A
C1005      C1414   1.483       .  S
C1006      C1489   1.403   1_545  A
C1006      H1010   1.085       .  S
C1007      C1488   1.403       .  A
C1007      C1008   1.407       .  A
C1007      C1327   1.491       .  S
C1008      C1485   1.413       .  A
C1008      H1011   1.083       .  S
C1012      C1013   1.412       .  A
C1012      C1061   1.481       .  S
C1013      C1014   1.408       .  A
C1013      H1018   1.084       .  S
C1014      C1015   1.404       .  A
C1014      C1315   1.492       .  S
C1015      H1019   1.085       .  S
C1016      C1017   1.407       .  A
C1016      C1363   1.490       .  S
C1017      H1020   1.084       .  S
C1021      C1022   1.419       .  A
C1021      C1508   1.406   1_545  A
C1021      C1060   1.478       .  S
C1022      C1023   1.420       .  A
C1022      H1027   1.082       .  S
C1023      C1024   1.399       .  A
C1023      C1402   1.510       .  S
C1024      C1507   1.395   1_545  A
C1024      H1028   1.081       .  S
C1025      C1506   1.395       .  A
C1025      C1026   1.398       .  A
C1025      C1339   1.473       .  S
C1026      C1503   1.406       .  A
C1026      H1029   1.084       .  S
C1030      C1031   1.411       .  A
C1030      C1035   1.415       .  A
C1030      C1059   1.473       .  S
C1031      C1032   1.404       .  A
C1031      H1036   1.084       .  S
C1032      C1033   1.395       .  A
C1032      C1351   1.491       .  S
C1033      C1034   1.396       .  A
C1033      H1037   1.078       .  S
C1034      C1035   1.408       .  A
C1034      C1387   1.491       .  S
C1035      H1038   1.083       .  S
Zn1039     O1048   2.041       .  S
Zn1039     O1055   2.033       .  S
Zn1039     O1525   1.984       .  S
Zn1040     O1045   2.031       .  S
Zn1040     O1529   2.014   1_545  S
Zn1040     O1051   2.003       .  S
Zn1041     O1046   2.018       .  S
Zn1041     O1049   2.037       .  S
Zn1041     O1052   2.003       .  S
Zn1041     O1043   1.957       .  S
Zn1042     O1050   2.061       .  S
Zn1042     O1536   2.063   1_545  S
Zn1042     O1043   1.994       .  S
O1043     Zn1521   1.984   1_545  S
O1044      C1056   1.276       .  A
O1046      C1058   1.275       .  A
O1047     Zn1522   2.014       .  S
O1047      C1056   1.276       .  A
O1048      C1540   1.275       .  A
O1049      C1057   1.275       .  A
O1050      C1059   1.278       .  A
O1051      C1060   1.271       .  A
O1052      C1059   1.271       .  A
O1053      C1060   1.280       .  A
O1054     Zn1524   2.063       .  S
O1054      C1061   1.278       .  A
O1055      C1061   1.275       .  A
C1056      C1132   1.486       .  S
C1057      C1085   1.491       .  S
C1058      C1123   1.488       .  S
C1058      O1530   1.275   1_545  A
Zn1062     O1067   2.001   1_554  S
Zn1062     O1071   2.029   1_554  S
Zn1062     O1078   2.012       .  S
Zn1062     O1066   1.967       .  S
Zn1063     O1550   2.050   1_544  S
Zn1063     O1070   2.058   1_554  S
Zn1063     O1074   2.032       .  S
Zn1064     O1069   1.991   1_554  S
Zn1064     O1075   1.983       .  S
Zn1064     O1548   1.943       .  S
Zn1065     O1555   2.068   1_545  S
Zn1065     O1077   2.070       .  S
Zn1065     O1066   1.987       .  S
O1066     Zn1546   1.943   1_545  S
O1067      C1079   1.274       .  A
O1068     Zn1545   2.050   1_556  S
O1068      C1080   1.277       .  A
O1069      C1563   1.272       .  A
O1071      C1081   1.272       .  A
O1072      C1080   1.271       .  A
O1073     Zn1547   2.068       .  S
O1073      C1082   1.277       .  A
O1074      C1083   1.276       .  A
O1075      C1082   1.268       .  A
O1076      C1083   1.278       .  A
O1077      C1084   1.279       .  A
O1078      C1084   1.272       .  A
C1079      C1094   1.488       .  S
C1080      C1141   1.488       .  S
C1081      C1150   1.482       .  S
C1081      O1551   1.272   1_545  A
C1085      C1090   1.411       .  A
C1086      C1087   1.420       .  A
C1086      H1091   1.081       .  S
C1087      C1279   1.513       .  S
C1088      C1089   1.396       .  A
C1088      H1092   1.079       .  S
C1089      C1090   1.400       .  A
C1089      C1291   1.480       .  S
C1090      H1093   1.083       .  S
C1094      C1099   1.414       .  A
C1095      C1096   1.408       .  A
C1095      H1100   1.083       .  S
C1096      C1255   1.482       .  S
C1097      C1098   1.396       .  A
C1097      H1101   1.085       .  S
C1098      C1099   1.398       .  A
C1098      C1270   1.477       .  S
C1099      H1102   1.083       .  S
C1103      H1104   1.111       .  S
C1103      C1109   1.540       .  S
C1103      C1108   1.536       .  S
C1103      C1107   1.542       .  S
C1105      H1106   1.108       .  S
C1105      C1111   1.536       .  S
C1105      C1110   1.535       .  S
C1105      C1112   1.535       .  S
C1107      C1110   1.383       .  D
C1107      C1207   1.493       .  S
C1108      C1111   1.375       .  D
C1108      C1234   1.476       .  S
C1109      C1112   1.378       .  D
C1109      C1282   1.485       .  S
C1110      C1219   1.494       .  S
C1111      C1246   1.493       .  S
C1112      C1258   1.492       .  S
C1113      H1114   1.110       .  S
C1113      C1119   1.534       .  S
C1113      C1118   1.528       .  S
C1113      C1117   1.537       .  S
C1115      H1116   1.107       .  S
C1115      C1121   1.540       .  S
C1115      C1120   1.537       .  S
C1115      C1122   1.529       .  S
C1117      C1120   1.384       .  D
C1117      C1159   1.479       .  S
C1118      C1121   1.379       .  D
C1118      C1267   1.495       .  S
C1119      C1122   1.379       .  D
C1119      C1183   1.488       .  S
C1120      C1171   1.504       .  S
C1121      C1294   1.474       .  S
C1122      C1198   1.489       .  S
C1123      C1124   1.415       .  A
C1123      C1610   1.420   1_545  A
C1124      C1125   1.400       .  A
C1124      H1129   1.082       .  S
C1125      C1126   1.396       .  A
C1125      C1231   1.497       .  S
C1126      C1609   1.398   1_545  A
C1126      H1130   1.078       .  S
C1127      C1608   1.398       .  A
C1127      C1128   1.411       .  A
C1127      C1195   1.504       .  S
C1128      C1605   1.420       .  A
C1128      H1131   1.082       .  S
C1132      C1133   1.418       .  A
C1132      C1137   1.410       .  A
C1133      C1134   1.413       .  A
C1133      H1138   1.083       .  S
C1134      C1135   1.403       .  A
C1134      C1210   1.501       .  S
C1135      C1136   1.394       .  A
C1135      H1139   1.082       .  S
C1136      C1137   1.395       .  A
C1136      C1174   1.476       .  S
C1137      H1140   1.084       .  S
C1141      C1142   1.413       .  A
C1141      C1146   1.411       .  A
C1142      C1143   1.402       .  A
C1142      H1147   1.083       .  S
C1143      C1144   1.397       .  A
C1143      C1222   1.486       .  S
C1144      C1145   1.404       .  A
C1144      H1148   1.081       .  S
C1145      C1146   1.412       .  A
C1145      C1162   1.502       .  S
C1146      H1149   1.080       .  S
C1150      C1151   1.416       .  A
C1150      C1637   1.406   1_545  A
C1151      C1152   1.414       .  A
C1151      H1156   1.082       .  S
C1152      C1153   1.402       .  A
C1152      C1243   1.497       .  S
C1153      C1636   1.396   1_545  A
C1153      H1157   1.081       .  S
C1154      C1635   1.396       .  A
C1154      C1155   1.390       .  A
C1154      C1186   1.473       .  S
C1155      C1632   1.406       .  A
C1155      H1158   1.084       .  S
C1159      C1160   1.402       .  A
C1159      C1164   1.398       .  A
C1160      C1161   1.404       .  A
C1160      H1165   1.078       .  S
C1161      C1162   1.415       .  A
C1161      O1166   1.370       .  S
C1162      C1163   1.411       .  A
C1163      C1164   1.390       .  A
C1163      H1167   1.073       .  S
C1164      O1168   1.373       .  S
O1166      H1170   0.992       .  S
O1168      H1169   0.991       .  S
C1171      C1172   1.408       .  A
C1171      C1176   1.415       .  A
C1172      C1173   1.400       .  A
C1172      H1177   1.082       .  S
C1173      C1174   1.406       .  A
C1173      O1178   1.372       .  S
C1174      C1175   1.398       .  A
C1175      C1176   1.398       .  A
C1175      H1179   1.084       .  S
C1176      O1180   1.366       .  S
O1178      H1182   0.992       .  S
O1180      H1181   0.992       .  S
C1183      C1184   1.406       .  A
C1183      C1188   1.406       .  A
C1184      C1185   1.397       .  A
C1184      H1189   1.084       .  S
C1185      C1186   1.406       .  A
C1185      O1190   1.372       .  S
C1186      C1187   1.402       .  A
C1187      C1188   1.395       .  A
C1187      H1191   1.084       .  S
C1188      O1192   1.367       .  S
O1190      H1194   0.992       .  S
O1192      H1193   0.992       .  S
C1195      C1196   1.411       .  A
C1195      C1200   1.414       .  A
C1196      C1197   1.391       .  A
C1196      H1201   1.083       .  S
C1197      C1198   1.401       .  A
C1197      O1202   1.376       .  S
C1198      C1199   1.407       .  A
C1199      C1200   1.413       .  A
C1199      H1203   1.083       .  S
C1200      O1204   1.370       .  S
O1202      H1206   0.990       .  S
O1204      H1205   0.992       .  S
C1207      C1208   1.397       .  A
C1207      C1212   1.411       .  A
C1208      C1209   1.392       .  A
C1208      H1213   1.083       .  S
C1209      C1210   1.414       .  A
C1209      O1214   1.369       .  S
C1210      C1211   1.409       .  A
C1211      C1212   1.412       .  A
C1211      H1215   1.083       .  S
C1212      O1216   1.371       .  S
O1214      H1218   0.992       .  S
O1216      H1217   0.991       .  S
C1219      C1220   1.406       .  A
C1219      C1224   1.409       .  A
C1220      C1221   1.401       .  A
C1220      H1225   1.083       .  S
C1221      C1222   1.409       .  A
C1221      O1226   1.371       .  S
C1222      C1223   1.406       .  A
C1223      C1224   1.400       .  A
C1223      H1227   1.084       .  S
C1224      O1228   1.371       .  S
O1226      H1230   0.991       .  S
O1228      H1229   0.992       .  S
C1231      C1232   1.408       .  A
C1231      C1236   1.416       .  A
C1232      C1233   1.388       .  A
C1232      H1237   1.083       .  S
C1233      C1234   1.397       .  A
C1233      O1238   1.369       .  S
C1234      C1235   1.403       .  A
C1235      C1236   1.407       .  A
C1235      H1239   1.083       .  S
C1236      O1240   1.371       .  S
O1238      H1242   0.992       .  S
O1240      H1241   0.992       .  S
C1243      C1244   1.410       .  A
C1243      C1248   1.410       .  A
C1244      C1245   1.400       .  A
C1244      H1249   1.083       .  S
C1245      C1246   1.405       .  A
C1245      O1250   1.372       .  S
C1246      C1247   1.406       .  A
C1247      C1248   1.404       .  A
C1247      H1251   1.081       .  S
C1248      O1252   1.371       .  S
O1250      H1254   0.992       .  S
O1252      H1253   0.992       .  S
C1255      C1256   1.402       .  A
C1255      C1260   1.408       .  A
C1256      C1257   1.396       .  A
C1256      H1261   1.084       .  S
C1257      C1258   1.409       .  A
C1257      O1262   1.371       .  S
C1258      C1259   1.407       .  A
C1259      C1260   1.406       .  A
C1259      H1263   1.083       .  S
C1260      O1264   1.371       .  S
O1262      H1266   0.992       .  S
O1264      H1265   0.992       .  S
C1267      C1268   1.407       .  A
C1267      C1272   1.412       .  A
C1268      C1269   1.402       .  A
C1268      H1273   1.083       .  S
C1269      C1270   1.405       .  A
C1269      O1274   1.371       .  S
C1270      C1271   1.401       .  A
C1271      C1272   1.398       .  A
C1271      H1275   1.084       .  S
C1272      O1276   1.370       .  S
O1274      H1278   0.992       .  S
O1276      H1277   0.992       .  S
C1279      C1280   1.408       .  A
C1279      C1284   1.431       .  A
C1280      C1281   1.407       .  A
C1280      H1285   1.082       .  S
C1281      C1282   1.408       .  A
C1281      O1286   1.366       .  S
C1282      C1283   1.388       .  A
C1283      C1284   1.391       .  A
C1283      H1287   1.085       .  S
C1284      O1288   1.366       .  S
O1286      H1290   0.992       .  S
O1288      H1289   0.992       .  S
C1291      C1292   1.404       .  A
C1291      C1296   1.405       .  A
C1292      C1293   1.386       .  A
C1292      H1297   1.077       .  S
C1293      C1294   1.399       .  A
C1293      O1298   1.376       .  S
C1294      C1295   1.408       .  A
C1295      C1296   1.406       .  A
C1295      H1299   1.079       .  S
C1296      O1300   1.370       .  S
O1298      H1302   0.992       .  S
O1300      H1301   0.992       .  S
C1303      C1304   1.402       .  A
C1303      C1308   1.423       .  A
C1304      C1305   1.383       .  A
C1304      H1309   1.078       .  S
C1305      C1306   1.405       .  A
C1305      O1310   1.372       .  S
C1306      C1307   1.399       .  A
C1307      C1308   1.411       .  A
C1307      H1311   1.083       .  S
C1308      O1312   1.368       .  S
O1310      H1314   0.992       .  S
O1312      H1313   0.992       .  S
C1315      C1316   1.407       .  A
C1315      C1320   1.411       .  A
C1316      C1317   1.411       .  A
C1316      H1321   1.083       .  S
C1317      C1318   1.412       .  A
C1317      O1322   1.373       .  S
C1318      C1319   1.403       .  A
C1319      C1320   1.399       .  A
C1319      H1323   1.082       .  S
C1320      O1324   1.372       .  S
O1322      H1326   0.992       .  S
O1324      H1325   0.991       .  S
C1327      C1328   1.405       .  A
C1327      C1332   1.411       .  A
C1328      C1329   1.394       .  A
C1328      H1333   1.084       .  S
C1329      C1330   1.408       .  A
C1329      O1334   1.370       .  S
C1330      C1331   1.408       .  A
C1331      C1332   1.410       .  A
C1331      H1335   1.083       .  S
C1332      O1336   1.371       .  S
O1334      H1338   0.992       .  S
O1336      H1337   0.992       .  S
C1339      C1340   1.397       .  A
C1339      C1344   1.400       .  A
C1340      C1341   1.413       .  A
C1340      H1345   1.083       .  S
C1341      C1342   1.426       .  A
C1341      O1346   1.370       .  S
C1342      C1343   1.405       .  A
C1343      C1344   1.384       .  A
C1343      H1347   1.071       .  S
C1344      O1348   1.373       .  S
O1346      H1350   0.992       .  S
O1348      H1349   0.991       .  S
C1351      C1352   1.407       .  A
C1351      C1356   1.415       .  A
C1352      C1353   1.405       .  A
C1352      H1357   1.083       .  S
C1353      C1354   1.406       .  A
C1353      O1358   1.371       .  S
C1354      C1355   1.394       .  A
C1355      C1356   1.397       .  A
C1355      H1359   1.081       .  S
C1356      O1360   1.376       .  S
O1358      H1362   0.991       .  S
O1360      H1361   0.993       .  S
C1363      C1364   1.404       .  A
C1363      C1368   1.409       .  A
C1364      C1365   1.413       .  A
C1364      H1369   1.083       .  S
C1365      C1366   1.414       .  A
C1365      O1370   1.374       .  S
C1366      C1367   1.400       .  A
C1367      C1368   1.400       .  A
C1367      H1371   1.073       .  S
C1368      O1372   1.372       .  S
O1370      H1374   0.992       .  S
O1372      H1373   0.991       .  S
C1375      C1376   1.405       .  A
C1375      C1380   1.396       .  A
C1376      C1377   1.409       .  A
C1376      H1381   1.080       .  S
C1377      C1378   1.412       .  A
C1377      O1382   1.371       .  S
C1378      C1379   1.414       .  A
C1379      C1380   1.388       .  A
C1379      H1383   1.078       .  S
C1380      O1384   1.375       .  S
O1382      H1386   0.992       .  S
O1384      H1385   0.992       .  S
C1387      C1388   1.407       .  A
C1387      C1392   1.411       .  A
C1388      C1389   1.411       .  A
C1388      H1393   1.083       .  S
C1389      C1390   1.411       .  A
C1389      O1394   1.370       .  S
C1390      C1391   1.402       .  A
C1391      C1392   1.392       .  A
C1391      H1395   1.083       .  S
C1392      O1396   1.375       .  S
O1394      H1398   0.992       .  S
O1396      H1397   0.993       .  S
C1399      C1400   1.392       .  A
C1399      C1404   1.411       .  A
C1400      C1401   1.392       .  A
C1400      H1405   1.085       .  S
C1401      C1402   1.427       .  A
C1401      O1406   1.371       .  S
C1402      C1403   1.408       .  A
C1403      C1404   1.410       .  A
C1403      H1407   1.082       .  S
C1404      O1408   1.368       .  S
O1406      H1410   0.993       .  S
O1408      H1409   0.991       .  S
C1411      C1412   1.402       .  A
C1411      C1416   1.412       .  A
C1412      C1413   1.397       .  A
C1412      H1417   1.083       .  S
C1413      C1414   1.410       .  A
C1413      O1418   1.373       .  S
C1414      C1415   1.403       .  A
C1415      C1416   1.405       .  A
C1415      H1419   1.083       .  S
C1416      O1420   1.370       .  S
O1418      H1422   0.992       .  S
O1420      H1421   0.991       .  S
C1423      C1424   1.404       .  A
C1423      C1428   1.407       .  A
C1424      C1425   1.399       .  A
C1424      H1429   1.084       .  S
C1425      C1426   1.408       .  A
C1425      O1430   1.368       .  S
C1426      C1427   1.410       .  A
C1427      C1428   1.405       .  A
C1427      H1431   1.084       .  S
C1428      O1432   1.371       .  S
O1430      H1434   0.992       .  S
O1432      H1433   0.992       .  S
C1435      C1436   1.409       .  A
C1435      C1440   1.420       .  A
C1436      C1437   1.412       .  A
C1436      H1441   1.082       .  S
C1437      C1438   1.408       .  A
C1437      O1442   1.373       .  S
C1438      C1439   1.399       .  A
C1439      C1440   1.404       .  A
C1439      H1443   1.084       .  S
C1440      O1444   1.374       .  S
O1442      H1446   0.992       .  S
O1444      H1445   0.993       .  S
C1447      C1448   1.413       .  A
C1447      C1452   1.408       .  A
C1447      C1566   1.478       .  S
C1448      C1449   1.417       .  A
C1448      H1453   1.082       .  S
C1449      C1450   1.405       .  A
C1449      C1917   1.509       .  S
C1450      C1451   1.400       .  A
C1450      H1454   1.079       .  S
C1451      C1452   1.401       .  A
C1451      C1905   1.485       .  S
C1452      H1455   1.084       .  S
C1456      H1457   1.110       .  S
C1456      C1462   1.534       .  S
C1456      C1461   1.536       .  S
C1456      C1460   1.536       .  S
C1458      H1459   1.111       .  S
C1458      C1464   1.546       .  S
C1458      C1463   1.547       .  S
C1458      C1465   1.549       .  S
C1460      C1463   1.381       .  D
C1460      C1893   1.493       .  S
C1461      C1464   1.378       .  D
C1461      C1857   1.479       .  S
C1462      C1465   1.383       .  D
C1462      C1908   1.501       .  S
C1463      C1881   1.492       .  S
C1464      C1848   1.504       .  S
C1465      C1872   1.495       .  S
C1466      H1467   1.107       .  S
C1466      C1472   1.543       .  S
C1466      C1471   1.535       .  S
C1466      C1470   1.547       .  S
C1468      H1469   1.107       .  S
C1468      C1474   1.538       .  S
C1468      C1473   1.533       .  S
C1468      C1475   1.542       .  S
C1470      C1473   1.391       .  D
C1470      C1785   1.509       .  S
C1471      C1474   1.375       .  D
C1471      C1920   1.495       .  S
C1472      C1475   1.389       .  D
C1472      C1812   1.491       .  S
C1473      C1800   1.497       .  S
C1474      C1836   1.477       .  S
C1475      C1824   1.516       .  S
C1476      C1477   1.408       .  A
C1476      C1564   1.470       .  S
C1477      C1478   1.400       .  A
C1477      H1482   1.084       .  S
C1478      C1479   1.393       .  A
C1478      C1788   1.475       .  S
C1479      H1483   1.084       .  S
C1480      C1481   1.414       .  A
C1480      C1860   1.500       .  S
C1481      H1484   1.081       .  S
C1485      C1486   1.408       .  A
C1485      C1565   1.475       .  S
C1486      C1487   1.403       .  A
C1486      H1491   1.084       .  S
C1487      C1488   1.398       .  A
C1487      C1896   1.483       .  S
C1488      H1492   1.085       .  S
C1489      C1490   1.407       .  A
C1489      C1809   1.491       .  S
C1490      H1493   1.083       .  S
C1494      C1495   1.412       .  A
C1494      C1543   1.481       .  S
C1495      C1496   1.408       .  A
C1495      H1500   1.084       .  S
C1496      C1497   1.404       .  A
C1496      C1797   1.492       .  S
C1497      H1501   1.085       .  S
C1498      C1499   1.407       .  A
C1498      C1845   1.490       .  S
C1499      H1502   1.084       .  S
C1503      C1504   1.419       .  A
C1503      C1542   1.478       .  S
C1504      C1505   1.420       .  A
C1504      H1509   1.082       .  S
C1505      C1506   1.399       .  A
C1505      C1884   1.510       .  S
C1506      H1510   1.081       .  S
C1507      C1508   1.398       .  A
C1507      C1821   1.473       .  S
C1508      H1511   1.084       .  S
C1512      C1513   1.411       .  A
C1512      C1517   1.415       .  A
C1512      C1541   1.473       .  S
C1513      C1514   1.404       .  A
C1513      H1518   1.084       .  S
C1514      C1515   1.395       .  A
C1514      C1833   1.491       .  S
C1515      C1516   1.396       .  A
C1515      H1519   1.078       .  S
C1516      C1517   1.408       .  A
C1516      C1869   1.491       .  S
C1517      H1520   1.083       .  S
Zn1521     O1530   2.041       .  S
Zn1521     O1537   2.033       .  S
Zn1522     O1527   2.031       .  S
Zn1522     O1533   2.003       .  S
Zn1523     O1528   2.018       .  S
Zn1523     O1531   2.037       .  S
Zn1523     O1534   2.003       .  S
Zn1523     O1525   1.957       .  S
Zn1524     O1532   2.061       .  S
Zn1524     O1525   1.994       .  S
O1526      C1538   1.276       .  A
O1528      C1540   1.275       .  A
O1529      C1538   1.276       .  A
O1531      C1539   1.275       .  A
O1532      C1541   1.278       .  A
O1533      C1542   1.271       .  A
O1534      C1541   1.271       .  A
O1535      C1542   1.280       .  A
O1536      C1543   1.278       .  A
O1537      C1543   1.275       .  A
C1538      C1614   1.486       .  S
C1539      C1567   1.491       .  S
C1540      C1605   1.488       .  S
Zn1544     O1549   2.001   1_554  S
Zn1544     O1553   2.029   1_554  S
Zn1544     O1560   2.012       .  S
Zn1544     O1548   1.967       .  S
Zn1545     O1552   2.058   1_554  S
Zn1545     O1556   2.032       .  S
Zn1546     O1551   1.991   1_554  S
Zn1546     O1557   1.983       .  S
Zn1547     O1559   2.070       .  S
Zn1547     O1548   1.987       .  S
O1549      C1561   1.274       .  A
O1550      C1562   1.277       .  A
O1553      C1563   1.272       .  A
O1554      C1562   1.271       .  A
O1555      C1564   1.277       .  A
O1556      C1565   1.276       .  A
O1557      C1564   1.268       .  A
O1558      C1565   1.278       .  A
O1559      C1566   1.279       .  A
O1560      C1566   1.272       .  A
C1561      C1576   1.488       .  S
C1562      C1623   1.488       .  S
C1563      C1632   1.482       .  S
C1567      C1572   1.411       .  A
C1568      C1569   1.420       .  A
C1568      H1573   1.081       .  S
C1569      C1761   1.513       .  S
C1570      C1571   1.396       .  A
C1570      H1574   1.079       .  S
C1571      C1572   1.400       .  A
C1571      C1773   1.480       .  S
C1572      H1575   1.083       .  S
C1576      C1581   1.414       .  A
C1577      C1578   1.408       .  A
C1577      H1582   1.083       .  S
C1578      C1737   1.482       .  S
C1579      C1580   1.396       .  A
C1579      H1583   1.085       .  S
C1580      C1581   1.398       .  A
C1580      C1752   1.477       .  S
C1581      H1584   1.083       .  S
C1585      H1586   1.111       .  S
C1585      C1591   1.540       .  S
C1585      C1590   1.536       .  S
C1585      C1589   1.542       .  S
C1587      H1588   1.108       .  S
C1587      C1593   1.536       .  S
C1587      C1592   1.535       .  S
C1587      C1594   1.535       .  S
C1589      C1592   1.383       .  D
C1589      C1689   1.493       .  S
C1590      C1593   1.375       .  D
C1590      C1716   1.476       .  S
C1591      C1594   1.378       .  D
C1591      C1764   1.485       .  S
C1592      C1701   1.494       .  S
C1593      C1728   1.493       .  S
C1594      C1740   1.492       .  S
C1595      H1596   1.110       .  S
C1595      C1601   1.534       .  S
C1595      C1600   1.528       .  S
C1595      C1599   1.537       .  S
C1597      H1598   1.107       .  S
C1597      C1603   1.540       .  S
C1597      C1602   1.537       .  S
C1597      C1604   1.529       .  S
C1599      C1602   1.384       .  D
C1599      C1641   1.479       .  S
C1600      C1603   1.379       .  D
C1600      C1749   1.495       .  S
C1601      C1604   1.379       .  D
C1601      C1665   1.488       .  S
C1602      C1653   1.504       .  S
C1603      C1776   1.474       .  S
C1604      C1680   1.489       .  S
C1605      C1606   1.415       .  A
C1606      C1607   1.400       .  A
C1606      H1611   1.082       .  S
C1607      C1608   1.396       .  A
C1607      C1713   1.497       .  S
C1608      H1612   1.078       .  S
C1609      C1610   1.411       .  A
C1609      C1677   1.504       .  S
C1610      H1613   1.082       .  S
C1614      C1615   1.418       .  A
C1614      C1619   1.410       .  A
C1615      C1616   1.413       .  A
C1615      H1620   1.083       .  S
C1616      C1617   1.403       .  A
C1616      C1692   1.501       .  S
C1617      C1618   1.394       .  A
C1617      H1621   1.082       .  S
C1618      C1619   1.395       .  A
C1618      C1656   1.476       .  S
C1619      H1622   1.084       .  S
C1623      C1624   1.413       .  A
C1623      C1628   1.411       .  A
C1624      C1625   1.402       .  A
C1624      H1629   1.083       .  S
C1625      C1626   1.397       .  A
C1625      C1704   1.486       .  S
C1626      C1627   1.404       .  A
C1626      H1630   1.081       .  S
C1627      C1628   1.412       .  A
C1627      C1644   1.502       .  S
C1628      H1631   1.080       .  S
C1632      C1633   1.416       .  A
C1633      C1634   1.414       .  A
C1633      H1638   1.082       .  S
C1634      C1635   1.402       .  A
C1634      C1725   1.497       .  S
C1635      H1639   1.081       .  S
C1636      C1637   1.390       .  A
C1636      C1668   1.473       .  S
C1637      H1640   1.084       .  S
C1641      C1642   1.402       .  A
C1641      C1646   1.398       .  A
C1642      C1643   1.404       .  A
C1642      H1647   1.078       .  S
C1643      C1644   1.415       .  A
C1643      O1648   1.370       .  S
C1644      C1645   1.411       .  A
C1645      C1646   1.390       .  A
C1645      H1649   1.073       .  S
C1646      O1650   1.373       .  S
O1648      H1652   0.992       .  S
O1650      H1651   0.991       .  S
C1653      C1654   1.408       .  A
C1653      C1658   1.415       .  A
C1654      C1655   1.400       .  A
C1654      H1659   1.082       .  S
C1655      C1656   1.406       .  A
C1655      O1660   1.372       .  S
C1656      C1657   1.398       .  A
C1657      C1658   1.398       .  A
C1657      H1661   1.084       .  S
C1658      O1662   1.366       .  S
O1660      H1664   0.992       .  S
O1662      H1663   0.992       .  S
C1665      C1666   1.406       .  A
C1665      C1670   1.406       .  A
C1666      C1667   1.397       .  A
C1666      H1671   1.084       .  S
C1667      C1668   1.406       .  A
C1667      O1672   1.372       .  S
C1668      C1669   1.402       .  A
C1669      C1670   1.395       .  A
C1669      H1673   1.084       .  S
C1670      O1674   1.367       .  S
O1672      H1676   0.992       .  S
O1674      H1675   0.992       .  S
C1677      C1678   1.411       .  A
C1677      C1682   1.414       .  A
C1678      C1679   1.391       .  A
C1678      H1683   1.083       .  S
C1679      C1680   1.401       .  A
C1679      O1684   1.376       .  S
C1680      C1681   1.407       .  A
C1681      C1682   1.413       .  A
C1681      H1685   1.083       .  S
C1682      O1686   1.370       .  S
O1684      H1688   0.990       .  S
O1686      H1687   0.992       .  S
C1689      C1690   1.397       .  A
C1689      C1694   1.411       .  A
C1690      C1691   1.392       .  A
C1690      H1695   1.083       .  S
C1691      C1692   1.414       .  A
C1691      O1696   1.369       .  S
C1692      C1693   1.409       .  A
C1693      C1694   1.412       .  A
C1693      H1697   1.083       .  S
C1694      O1698   1.371       .  S
O1696      H1700   0.992       .  S
O1698      H1699   0.991       .  S
C1701      C1702   1.406       .  A
C1701      C1706   1.409       .  A
C1702      C1703   1.401       .  A
C1702      H1707   1.083       .  S
C1703      C1704   1.409       .  A
C1703      O1708   1.371       .  S
C1704      C1705   1.406       .  A
C1705      C1706   1.400       .  A
C1705      H1709   1.084       .  S
C1706      O1710   1.371       .  S
O1708      H1712   0.991       .  S
O1710      H1711   0.992       .  S
C1713      C1714   1.408       .  A
C1713      C1718   1.416       .  A
C1714      C1715   1.388       .  A
C1714      H1719   1.083       .  S
C1715      C1716   1.397       .  A
C1715      O1720   1.369       .  S
C1716      C1717   1.403       .  A
C1717      C1718   1.407       .  A
C1717      H1721   1.083       .  S
C1718      O1722   1.371       .  S
O1720      H1724   0.992       .  S
O1722      H1723   0.992       .  S
C1725      C1726   1.410       .  A
C1725      C1730   1.410       .  A
C1726      C1727   1.400       .  A
C1726      H1731   1.083       .  S
C1727      C1728   1.405       .  A
C1727      O1732   1.372       .  S
C1728      C1729   1.406       .  A
C1729      C1730   1.404       .  A
C1729      H1733   1.081       .  S
C1730      O1734   1.371       .  S
O1732      H1736   0.992       .  S
O1734      H1735   0.992       .  S
C1737      C1738   1.402       .  A
C1737      C1742   1.408       .  A
C1738      C1739   1.396       .  A
C1738      H1743   1.084       .  S
C1739      C1740   1.409       .  A
C1739      O1744   1.371       .  S
C1740      C1741   1.407       .  A
C1741      C1742   1.406       .  A
C1741      H1745   1.083       .  S
C1742      O1746   1.371       .  S
O1744      H1748   0.992       .  S
O1746      H1747   0.992       .  S
C1749      C1750   1.407       .  A
C1749      C1754   1.412       .  A
C1750      C1751   1.402       .  A
C1750      H1755   1.083       .  S
C1751      C1752   1.405       .  A
C1751      O1756   1.371       .  S
C1752      C1753   1.401       .  A
C1753      C1754   1.398       .  A
C1753      H1757   1.084       .  S
C1754      O1758   1.370       .  S
O1756      H1760   0.992       .  S
O1758      H1759   0.992       .  S
C1761      C1762   1.408       .  A
C1761      C1766   1.431       .  A
C1762      C1763   1.407       .  A
C1762      H1767   1.082       .  S
C1763      C1764   1.408       .  A
C1763      O1768   1.366       .  S
C1764      C1765   1.388       .  A
C1765      C1766   1.391       .  A
C1765      H1769   1.085       .  S
C1766      O1770   1.366       .  S
O1768      H1772   0.992       .  S
O1770      H1771   0.992       .  S
C1773      C1774   1.404       .  A
C1773      C1778   1.405       .  A
C1774      C1775   1.386       .  A
C1774      H1779   1.077       .  S
C1775      C1776   1.399       .  A
C1775      O1780   1.376       .  S
C1776      C1777   1.408       .  A
C1777      C1778   1.406       .  A
C1777      H1781   1.079       .  S
C1778      O1782   1.370       .  S
O1780      H1784   0.992       .  S
O1782      H1783   0.992       .  S
C1785      C1786   1.402       .  A
C1785      C1790   1.423       .  A
C1786      C1787   1.383       .  A
C1786      H1791   1.078       .  S
C1787      C1788   1.405       .  A
C1787      O1792   1.372       .  S
C1788      C1789   1.399       .  A
C1789      C1790   1.411       .  A
C1789      H1793   1.083       .  S
C1790      O1794   1.368       .  S
O1792      H1796   0.992       .  S
O1794      H1795   0.992       .  S
C1797      C1798   1.407       .  A
C1797      C1802   1.411       .  A
C1798      C1799   1.411       .  A
C1798      H1803   1.083       .  S
C1799      C1800   1.412       .  A
C1799      O1804   1.373       .  S
C1800      C1801   1.403       .  A
C1801      C1802   1.399       .  A
C1801      H1805   1.082       .  S
C1802      O1806   1.372       .  S
O1804      H1808   0.992       .  S
O1806      H1807   0.991       .  S
C1809      C1810   1.405       .  A
C1809      C1814   1.411       .  A
C1810      C1811   1.394       .  A
C1810      H1815   1.084       .  S
C1811      C1812   1.408       .  A
C1811      O1816   1.370       .  S
C1812      C1813   1.408       .  A
C1813      C1814   1.410       .  A
C1813      H1817   1.083       .  S
C1814      O1818   1.371       .  S
O1816      H1820   0.992       .  S
O1818      H1819   0.992       .  S
C1821      C1822   1.397       .  A
C1821      C1826   1.400       .  A
C1822      C1823   1.413       .  A
C1822      H1827   1.083       .  S
C1823      C1824   1.426       .  A
C1823      O1828   1.370       .  S
C1824      C1825   1.405       .  A
C1825      C1826   1.384       .  A
C1825      H1829   1.071       .  S
C1826      O1830   1.373       .  S
O1828      H1832   0.992       .  S
O1830      H1831   0.991       .  S
C1833      C1834   1.407       .  A
C1833      C1838   1.415       .  A
C1834      C1835   1.405       .  A
C1834      H1839   1.083       .  S
C1835      C1836   1.406       .  A
C1835      O1840   1.371       .  S
C1836      C1837   1.394       .  A
C1837      C1838   1.397       .  A
C1837      H1841   1.081       .  S
C1838      O1842   1.376       .  S
O1840      H1844   0.991       .  S
O1842      H1843   0.993       .  S
C1845      C1846   1.404       .  A
C1845      C1850   1.409       .  A
C1846      C1847   1.413       .  A
C1846      H1851   1.083       .  S
C1847      C1848   1.414       .  A
C1847      O1852   1.374       .  S
C1848      C1849   1.400       .  A
C1849      C1850   1.400       .  A
C1849      H1853   1.073       .  S
C1850      O1854   1.372       .  S
O1852      H1856   0.992       .  S
O1854      H1855   0.991       .  S
C1857      C1858   1.405       .  A
C1857      C1862   1.396       .  A
C1858      C1859   1.409       .  A
C1858      H1863   1.080       .  S
C1859      C1860   1.412       .  A
C1859      O1864   1.371       .  S
C1860      C1861   1.414       .  A
C1861      C1862   1.388       .  A
C1861      H1865   1.078       .  S
C1862      O1866   1.375       .  S
O1864      H1868   0.992       .  S
O1866      H1867   0.992       .  S
C1869      C1870   1.407       .  A
C1869      C1874   1.411       .  A
C1870      C1871   1.411       .  A
C1870      H1875   1.083       .  S
C1871      C1872   1.411       .  A
C1871      O1876   1.370       .  S
C1872      C1873   1.402       .  A
C1873      C1874   1.392       .  A
C1873      H1877   1.083       .  S
C1874      O1878   1.375       .  S
O1876      H1880   0.992       .  S
O1878      H1879   0.993       .  S
C1881      C1882   1.392       .  A
C1881      C1886   1.411       .  A
C1882      C1883   1.392       .  A
C1882      H1887   1.085       .  S
C1883      C1884   1.427       .  A
C1883      O1888   1.371       .  S
C1884      C1885   1.408       .  A
C1885      C1886   1.410       .  A
C1885      H1889   1.082       .  S
C1886      O1890   1.368       .  S
O1888      H1892   0.993       .  S
O1890      H1891   0.991       .  S
C1893      C1894   1.402       .  A
C1893      C1898   1.412       .  A
C1894      C1895   1.397       .  A
C1894      H1899   1.083       .  S
C1895      C1896   1.410       .  A
C1895      O1900   1.373       .  S
C1896      C1897   1.403       .  A
C1897      C1898   1.405       .  A
C1897      H1901   1.083       .  S
C1898      O1902   1.370       .  S
O1900      H1904   0.992       .  S
O1902      H1903   0.991       .  S
C1905      C1906   1.404       .  A
C1905      C1910   1.407       .  A
C1906      C1907   1.399       .  A
C1906      H1911   1.084       .  S
C1907      C1908   1.408       .  A
C1907      O1912   1.368       .  S
C1908      C1909   1.410       .  A
C1909      C1910   1.405       .  A
C1909      H1913   1.084       .  S
C1910      O1914   1.371       .  S
O1912      H1916   0.992       .  S
O1914      H1915   0.992       .  S
C1917      C1918   1.409       .  A
C1917      C1922   1.420       .  A
C1918      C1919   1.412       .  A
C1918      H1923   1.082       .  S
C1919      C1920   1.408       .  A
C1919      O1924   1.373       .  S
C1920      C1921   1.399       .  A
C1921      C1922   1.404       .  A
C1921      H1925   1.084       .  S
C1922      O1926   1.374       .  S
O1924      H1928   0.992       .  S
O1926      H1927   0.993       .  S
