geometry optimzed in LAMMPS
_audit_creation_date              2020-11-30 
_audit_creation_method            'lammps2cif' 
_symmetry_space_group_name_H-M    'P1' 
_symmetry_Int_Tables_number       1 
_symmetry_cell_setting            triclinic 
loop_ 
_symmetry_equiv_pos_as_xyz 
  x,y,z 
_cell_length_a                    36.76456173 
_cell_length_b                    36.764751419722444 
_cell_length_c                    84.43829556003239 
_cell_angle_alpha                 89.96635324969704 
_cell_angle_beta                  90.06574043842411 
_cell_angle_gamma                 89.85042385780295 
loop_ 
_atom_site_label 
_atom_site_type_symbol 
_atom_site_fract_x 
_atom_site_fract_y 
_atom_site_fract_z 
_atom_site_charge 
O1          O  0.47221981  0.44470812  0.69081384    -0.70800
O2          O  0.43170912  0.05335692  0.68589755    -0.71700
O3          O  0.43422442  0.99613491  0.66340735    -0.60400
O4          O  0.43711593  0.00290996  0.71118019    -0.68800
O5          O  0.03140252  0.51257956  0.71149383    -0.68300
O6          O  0.01246551  0.51151439  0.66426021    -0.59600
O7          O  0.98876016  0.06417551  0.68555741    -0.72100
O8          O  0.01882533  0.45818815  0.68829842    -0.70900
Cu9        Cu  0.43328352  0.99935610  0.68733534     1.04600
Cu10       Cu  0.02422557  0.51199265  0.68769911     1.04300
C11         C  0.98802957  0.44325860  0.69053512     0.95400
C12         C  0.95994923  0.08320914  0.68689798     0.94600
C13         C  0.49031701  0.49501431  0.65655292     0.86700
C14         C  0.96291225  0.01474947  0.71880036     0.93000
O15         O  0.44069915  0.20251420  0.68903423    -0.70800
O16         O  0.46183624  0.30864339  0.69178503    -0.71700
O17         O  0.44010030  0.26062738  0.66711545    -0.60400
O18         O  0.46205803  0.25003186  0.71374774    -0.68800
O19         O  0.01560462  0.25957658  0.70993836    -0.68300
O20         O  0.99445720  0.26186194  0.66310975    -0.59600
O21         O  0.00908007  0.31478214  0.68676633    -0.72100
O22         O  0.00067111  0.20681493  0.68625127    -0.70900
Cu23       Cu  0.44913751  0.25595552  0.69062684     1.04600
Cu24       Cu  0.00705497  0.26063022  0.68634218     1.04300
C25         C  0.46677766  0.18087961  0.68578597     0.95400
C26         C  0.49416261  0.31991889  0.68943913     0.94600
C27         C  0.46559989  0.25637261  0.65701647     0.86700
C28         C  0.98938769  0.26161744  0.71980992     0.93000
O29         O  0.30713542  0.49393316  0.71438801    -0.70800
O30         O  0.32598630  0.48717331  0.66742607    -0.71700
O31         O  0.29764832  0.04426053  0.68856853    -0.60400
O32         O  0.31398031  0.43635202  0.69222049    -0.68800
O33         O  0.25435317  0.43869979  0.68768738    -0.68300
O34         O  0.23904806  0.04530168  0.68188390    -0.59600
O35         O  0.26654918  0.48894951  0.66273781    -0.72100
O36         O  0.24756615  0.49585652  0.71003003    -0.70900
Cu37       Cu  0.31847097  0.49034908  0.69107058     1.04600
Cu38       Cu  0.25467698  0.49231873  0.68620573     1.04300
C39         C  0.27460428  0.49624485  0.71958696     0.95400
C40         C  0.29934654  0.48735489  0.65770521     0.94600
C41         C  0.26877105  0.06154251  0.68484470     0.86700
C42         C  0.28334554  0.42075408  0.69032923     0.93000
O43         O  0.30215280  0.23606908  0.71085937    -0.70800
O44         O  0.30293104  0.24342769  0.66308652    -0.71700
O45         O  0.30551851  0.29334449  0.68864650    -0.60400
O46         O  0.30086771  0.18634717  0.68540365    -0.68800
O47         O  0.24033132  0.18867908  0.68524519    -0.68300
O48         O  0.24503228  0.29658693  0.68854549    -0.59600
O49         O  0.24252921  0.24624267  0.66317860    -0.72100
O50         O  0.24174510  0.23885348  0.71051916    -0.70900
Cu51       Cu  0.30502794  0.23973170  0.68699390     1.04600
Cu52       Cu  0.24025893  0.24272445  0.68685520     1.04300
C53         C  0.27164230  0.23629489  0.71811539     0.95400
C54         C  0.27262666  0.24563926  0.65568731     0.94600
C55         C  0.27617915  0.31169507  0.68919823     0.86700
C56         C  0.27005722  0.17076806  0.68487076     0.93000
O57         O  0.47811049  0.05887633  0.81960004    -0.70800
O58         O  0.47226527  0.04668884  0.77234418    -0.71700
O59         O  0.42187888  0.04540493  0.79744528    -0.60400
O60         O  0.03152670  0.05918599  0.79570816    -0.68800
O61         O  0.06596041  0.48359651  0.80152133    -0.68300
O62         O  0.46164649  0.50134089  0.79935836    -0.59600
O63         O  0.51571577  0.49231465  0.77595474    -0.72100
O64         O  0.51515303  0.50811151  0.82325675    -0.70900
Cu65       Cu  0.47497341  0.05481973  0.79587541     1.04600
Cu66       Cu  0.51545441  0.49805742  0.79974293     1.04300
C67         C  0.48312056  0.03102462  0.82837725     0.95400
C68         C  0.47501826  0.01501159  0.76626935     0.94600
C69         C  0.40927056  0.01336671  0.79909484     0.86700
C70         C  0.05023998  0.02997305  0.79593179     0.93000
O71         O  0.45637950  0.23607262  0.79969014    -0.70800
O72         O  0.06491976  0.27945247  0.79929191    -0.71700
O73         O  0.00680217  0.28057482  0.77684438    -0.60400
O74         O  0.01501025  0.26315711  0.82408242    -0.68800
O75         O  0.02207609  0.20400559  0.81962412    -0.68300
O76         O  0.01395916  0.22130715  0.77271578    -0.59600
O77         O  0.07191537  0.22015340  0.79498514    -0.72100
O78         O  0.46032322  0.17677092  0.79468719    -0.70900
Cu79       Cu  0.01094275  0.27423303  0.80063149     1.04600
Cu80       Cu  0.01853236  0.21078712  0.79601837     1.04300
C81         C  0.44150990  0.20527851  0.79737617     0.95400
C82         C  0.08520095  0.25188351  0.79682952     0.94600
C83         C  0.00842972  0.25338163  0.76742786     0.86700
C84         C  0.01922847  0.23067611  0.82921680     0.93000
O85         O  0.32313486  0.49377137  0.79979835    -0.70800
O86         O  0.21592183  0.48064199  0.80124998    -0.71700
O87         O  0.26882423  0.48036929  0.77675067    -0.60400
O88         O  0.27042557  0.49406566  0.82427585    -0.68800
O89         O  0.23218332  0.05657554  0.81772658    -0.68300
O90         O  0.23489106  0.04043441  0.77032412    -0.59600
O91         O  0.17962146  0.05468865  0.79303632    -0.72100
O92         O  0.28681770  0.04242923  0.79512877    -0.70900
Cu93       Cu  0.26983762  0.48508223  0.80063280     1.04600
Cu94       Cu  0.23355186  0.05060275  0.79389797     1.04300
C95         C  0.30035815  0.01096961  0.79749642     0.95400
C96         C  0.15959853  0.02673191  0.79467725     0.94600
C97         C  0.23248122  0.00822730  0.76472531     0.86700
C98         C  0.26706017  0.52597695  0.83010382     0.93000
O99         O  0.25872882  0.20241845  0.77350822    -0.70800
O100        O  0.25567554  0.20119554  0.82121920    -0.71700
O101        O  0.20440286  0.21413494  0.79676451    -0.60400
O102        O  0.30965139  0.18900832  0.79787544    -0.68800
O103        O  0.32290845  0.24803036  0.79833719    -0.68300
O104        O  0.21720082  0.27324196  0.79722959    -0.59600
O105        O  0.26884739  0.26015645  0.82162048    -0.72100
O106        O  0.27187209  0.26138785  0.77405372    -0.70900
Cu107      Cu  0.25655605  0.19962531  0.79733782     1.04600
Cu108      Cu  0.27066730  0.26280752  0.79783689     1.04300
C109        C  0.26619531  0.23208923  0.76634702     0.95400
C110        C  0.26198667  0.23048461  0.82887151     0.94600
C111        C  0.19426160  0.24730410  0.79680288     0.86700
C112        C  0.33275255  0.21473859  0.79815530     0.93000
O113        O  0.46080101  0.44231975  0.29477277    -0.70800
O114        O  0.44277117  0.04801695  0.29521696    -0.71700
O115        O  0.47262286  0.49947866  0.27292277    -0.60400
O116        O  0.45294757  0.49354773  0.31957371    -0.68800
O117        O  0.01488520  0.49921489  0.32611155    -0.68300
O118        O  0.02930491  0.50932708  0.27882798    -0.59600
O119        O  0.98899213  0.05695794  0.30061464    -0.72100
O120        O  0.02126014  0.44988218  0.30028011    -0.70900
Cu121      Cu  0.46105629  0.49646055  0.29610372     1.04600
Cu122      Cu  0.02430333  0.50386090  0.30259513     1.04300
C123        C  0.48995244  0.42395798  0.29667762     0.95400
C124        C  0.47232910  0.06433346  0.29859764     0.94600
C125        C  0.50518659  0.49900495  0.26773561     0.86700
C126        C  0.47923179  0.49122554  0.32939385     0.93000
O127        O  0.45544072  0.29952463  0.29679467    -0.70800
O128        O  0.44872864  0.19230770  0.29882657    -0.71700
O129        O  0.45131256  0.24819322  0.32172344    -0.60400
O130        O  0.45369519  0.24340916  0.27396031    -0.68800
O131        O  0.00806311  0.24752236  0.27598006    -0.68300
O132        O  0.99911573  0.25337643  0.32358907    -0.59600
O133        O  0.99709543  0.19706244  0.30077285    -0.72100
O134        O  0.01038997  0.30426315  0.29875757    -0.70900
Cu135      Cu  0.45017521  0.24602989  0.29781237     1.04600
Cu136      Cu  0.00577560  0.25035321  0.29986081     1.04300
C137        C  0.48654620  0.31459963  0.29676735     0.95400
C138        C  0.47778285  0.17349697  0.29940942     0.94600
C139        C  0.48116208  0.24682156  0.32948152     0.86700
C140        C  0.48429844  0.24065515  0.26688812     0.93000
O141        O  0.24235346  0.44479770  0.29642216    -0.70800
O142        O  0.23587090  0.05084784  0.29851945    -0.71700
O143        O  0.24370211  0.50358790  0.27466568    -0.60400
O144        O  0.24348030  0.49451944  0.32209202    -0.68800
O145        O  0.30389542  0.49250832  0.32229480    -0.68300
O146        O  0.30412689  0.50174929  0.27449292    -0.59600
O147        O  0.29643705  0.05125107  0.29900265    -0.72100
O148        O  0.30290157  0.44324174  0.29642230    -0.70900
Cu149      Cu  0.24167403  0.49878472  0.29836143     1.04600
Cu150      Cu  0.30646666  0.49667891  0.29837519     1.04300
C151        C  0.27228669  0.42727230  0.29584587     0.95400
C152        C  0.26603276  0.06780975  0.29910283     0.94600
C153        C  0.27379548  0.50488351  0.26717341     0.86700
C154        C  0.27350082  0.49279374  0.32965979     0.93000
O155        O  0.30175895  0.30041476  0.29379317    -0.70800
O156        O  0.29947823  0.19247557  0.29676964    -0.71700
O157        O  0.29025019  0.24317243  0.27201751    -0.60400
O158        O  0.31203419  0.24940254  0.31861130    -0.68800
O159        O  0.25290502  0.25150259  0.32394222    -0.68300
O160        O  0.23091103  0.24514524  0.27692938    -0.59600
O161        O  0.24012494  0.19492311  0.30191591    -0.72100
O162        O  0.24238508  0.30206278  0.29892386    -0.70900
Cu163      Cu  0.30298680  0.24633466  0.29513045     1.04600
Cu164      Cu  0.23947377  0.24853723  0.30062899     1.04300
C165        C  0.27220987  0.31800190  0.29584011     0.95400
C166        C  0.26925036  0.17694573  0.29967013     0.94600
C167        C  0.25737779  0.24290470  0.26715008     0.86700
C168        C  0.28605500  0.25118127  0.32859545     0.93000
O169        O  0.96861686  0.50187570  0.46675948    -0.70800
O170        O  0.98243946  0.50032827  0.41952488    -0.71700
O171        O  0.96932735  0.05541470  0.43892585    -0.60400
O172        O  0.96951895  0.44590936  0.44307481    -0.68800
O173        O  0.41738245  0.44310085  0.43985799    -0.68300
O174        O  0.40523928  0.04881359  0.43869772    -0.59600
O175        O  0.41832824  0.49713850  0.41544448    -0.72100
O176        O  0.42483204  0.49812457  0.46382794    -0.70900
Cu177      Cu  0.97744779  0.50093669  0.44324980     1.04600
Cu178      Cu  0.41877978  0.49785052  0.43967185     1.04300
C179        C  0.45649040  0.49652931  0.47023108     0.95400
C180        C  0.44801449  0.49543557  0.40752560     0.94600
C181        C  0.43402231  0.06800718  0.43738546     0.86700
C182        C  0.44593715  0.42337220  0.43915181     0.93000
O183        O  0.97697235  0.25082206  0.41788783    -0.70800
O184        O  0.96555807  0.24956082  0.46539502    -0.71700
O185        O  0.96284648  0.19505773  0.44089269    -0.60400
O186        O  0.97918130  0.30493169  0.44234430    -0.68800
O187        O  0.43275467  0.30276940  0.43786770    -0.68300
O188        O  0.42774554  0.19010291  0.43717791    -0.59600
O189        O  0.41977763  0.24627886  0.46090003    -0.72100
O190        O  0.43836031  0.24691788  0.41409566    -0.70900
Cu191      Cu  0.97320429  0.24973982  0.44172697     1.04600
Cu192      Cu  0.42750076  0.24661021  0.43736548     1.04300
C193        C  0.47079372  0.24584112  0.40878088     0.95400
C194        C  0.44637435  0.24478417  0.47059024     0.94600
C195        C  0.45746312  0.17205627  0.43908669     0.86700
C196        C  0.46378154  0.31810313  0.44006132     0.93000
O197        O  0.30927384  0.49932467  0.41418266    -0.70800
O198        O  0.32985438  0.49997997  0.46073282    -0.71700
O199        O  0.31705518  0.44358005  0.43773581    -0.60400
O200        O  0.31187220  0.05665725  0.43654116    -0.68800
O201        O  0.25297360  0.05434298  0.44195528    -0.68300
O202        O  0.25783542  0.44633768  0.44244803    -0.59600
O203        O  0.27077451  0.50108286  0.46597752    -0.72100
O204        O  0.24975094  0.50057949  0.41858607    -0.70900
Cu205      Cu  0.32095308  0.49974415  0.43732513     1.04600
Cu206      Cu  0.25760895  0.50107714  0.44245845     1.04300
C207        C  0.27670917  0.49948020  0.40900963     0.95400
C208        C  0.30393854  0.50029420  0.47074365     0.94600
C209        C  0.28647628  0.42748203  0.44002530     0.86700
C210        C  0.28151156  0.07300399  0.43915729     0.93000
O211        O  0.34018564  0.25034978  0.41579615    -0.70800
O212        O  0.32642503  0.24825170  0.46389181    -0.71700
O213        O  0.33392193  0.19467053  0.43937945    -0.60400
O214        O  0.33600993  0.30400402  0.44028991    -0.68800
O215        O  0.27624066  0.30695350  0.43712338    -0.68300
O216        O  0.27402353  0.19433708  0.43645964    -0.59600
O217        O  0.26677334  0.24999302  0.45997278    -0.72100
O218        O  0.28008599  0.25141300  0.41324044    -0.70900
Cu219      Cu  0.33619354  0.24928217  0.43996781     1.04600
Cu220      Cu  0.27220872  0.25073640  0.43658275     1.04300
C221        C  0.31164077  0.25119281  0.40706361     0.95400
C222        C  0.29383370  0.24869756  0.46936078     0.94600
C223        C  0.30431530  0.17699903  0.43784222     0.86700
C224        C  0.30709678  0.32295910  0.43880002     0.93000
O225        O  0.06786428  0.52151980  0.05068877    -0.70800
O226        O  0.45775617  0.53126715  0.04589763    -0.71700
O227        O  0.51330382  0.53117070  0.02187421    -0.60400
O228        O  0.51302434  0.51939324  0.06937416    -0.68800
O229        O  0.50941891  0.07096365  0.07078382    -0.68300
O230        O  0.50519059  0.07973686  0.02317914    -0.59600
O231        O  0.45243078  0.08130420  0.04794167    -0.72100
O232        O  0.06213879  0.07347962  0.04506929    -0.70900
Cu233      Cu  0.51282078  0.52325312  0.04553884     1.04600
Cu234      Cu  0.50746738  0.07762578  0.04703548     1.04300
C235        C  0.08873979  0.54923709  0.04954623     0.95400
C236        C  0.44402087  0.56317589  0.04727886     0.94600
C237        C  0.51737511  0.56274675  0.01575682     0.86700
C238        C  0.51645787  0.54738775  0.07819236     0.93000
O239        O  0.05871245  0.16247554  0.04782069    -0.70800
O240        O  0.44859058  0.16069782  0.04755378    -0.71700
O241        O  0.50463561  0.15369659  0.02418961    -0.60400
O242        O  0.00328422  0.16799899  0.07165120    -0.68800
O243        O  0.00344473  0.22813217  0.06926004    -0.68300
O244        O  0.00397899  0.21799496  0.02168133    -0.59600
O245        O  0.44752450  0.22038948  0.04410075    -0.72100
O246        O  0.05961495  0.22248813  0.04553115    -0.70900
Cu247      Cu  0.00342008  0.16092986  0.04790479     1.04600
Cu248      Cu  0.00363493  0.22509790  0.04540049     1.04300
C249        C  0.07672116  0.19209512  0.04661062     0.95400
C250        C  0.43049141  0.19023013  0.04589577     0.94600
C251        C  0.00421513  0.18639068  0.01533685     0.86700
C252        C  0.00318212  0.19962750  0.07790894     0.93000
O253        O  0.25751234  0.08598078  0.02331911    -0.70800
O254        O  0.25731257  0.07269601  0.07084344    -0.71700
O255        O  0.31268940  0.07219273  0.04690259    -0.60400
O256        O  0.20235852  0.08589550  0.04730346    -0.68800
O257        O  0.20748252  0.53300556  0.04966351    -0.68300
O258        O  0.31765032  0.52043867  0.04957783    -0.59600
O259        O  0.26318442  0.53275006  0.07335234    -0.72100
O260        O  0.26182237  0.52068205  0.02593998    -0.70900
Cu261      Cu  0.25774992  0.08126419  0.04719727     1.04600
Cu262      Cu  0.26235093  0.52468103  0.04974020     1.04300
C263        C  0.26536267  0.54839981  0.01694268     0.95400
C264        C  0.26668599  0.56441261  0.07936306     0.94600
C265        C  0.33873610  0.54792429  0.04812644     0.86700
C266        C  0.19381500  0.56490340  0.04816518     0.93000
O267        O  0.19754490  0.18723646  0.04490406    -0.70800
O268        O  0.30950530  0.18630164  0.04579948    -0.71700
O269        O  0.25208055  0.18139584  0.06918661    -0.60400
O270        O  0.25494703  0.19217830  0.02152840    -0.68800
O271        O  0.25508783  0.25220136  0.02423541    -0.68300
O272        O  0.25221895  0.24155349  0.07153906    -0.59600
O273        O  0.30900644  0.24627730  0.04829560    -0.72100
O274        O  0.19840914  0.24722924  0.04729678    -0.70900
Cu275      Cu  0.25351655  0.18461359  0.04526831     1.04600
Cu276      Cu  0.25370229  0.24877794  0.04794133     1.04300
C277        C  0.18042145  0.21759904  0.04603977     0.95400
C278        C  0.32681855  0.21645139  0.04701144     0.94600
C279        C  0.25130886  0.20996692  0.07779747     0.86700
C280        C  0.25576815  0.22403819  0.01541241     0.93000
O281        O  0.46004353  0.49116364  0.18641515    -0.70800
O282        O  0.07299444  0.52051102  0.19054629    -0.71700
O283        O  0.51282095  0.48234096  0.21074425    -0.60400
O284        O  0.51541195  0.49477532  0.16325288    -0.68800
O285        O  0.51118662  0.04662409  0.16481311    -0.68300
O286        O  0.50494123  0.03646338  0.21226431    -0.59600
O287        O  0.06426063  0.05694874  0.19288161    -0.72100
O288        O  0.45427499  0.03944244  0.18702352    -0.70900
Cu289      Cu  0.51398785  0.48640757  0.18688385     1.04600
Cu290      Cu  0.50810161  0.04358771  0.18861476     1.04300
C291        C  0.44461929  0.52210804  0.18762619     0.95400
C292        C  0.08631021  0.55199745  0.19296961     0.94600
C293        C  0.51389644  0.51036295  0.21967656     0.86700
C294        C  0.51698512  0.52671523  0.15732272     0.93000
O295        O  0.43653238  0.20100383  0.18713768    -0.70800
O296        O  0.04126897  0.19077357  0.19135243    -0.71700
O297        O  0.98479071  0.20585799  0.21336533    -0.60400
O298        O  0.99080764  0.19222160  0.16596961    -0.68800
O299        O  0.49755582  0.25223945  0.16256052    -0.68300
O300        O  0.49197294  0.26147528  0.21012460    -0.59600
O301        O  0.05001136  0.25025409  0.18833687    -0.72100
O302        O  0.44086628  0.26118350  0.18501944    -0.70900
Cu303      Cu  0.98753050  0.19689036  0.18977612     1.04600
Cu304      Cu  0.49493660  0.25902300  0.18627967     1.04300
C305        C  0.42188298  0.23229679  0.18576194     0.95400
C306        C  0.06232671  0.21811495  0.19026514     0.94600
C307        C  0.48885134  0.23286464  0.21860472     0.86700
C308        C  0.99616078  0.21978588  0.15705208     0.93000
O309        O  0.31402671  0.04043649  0.18657647    -0.70800
O310        O  0.20629625  0.04619133  0.19010983    -0.71700
O311        O  0.26410574  0.03824478  0.21195909    -0.60400
O312        O  0.25657293  0.04849001  0.16455638    -0.68800
O313        O  0.25936581  0.52490429  0.16317702    -0.68300
O314        O  0.26387024  0.50115281  0.20967975    -0.59600
O315        O  0.20808749  0.52035155  0.18812479    -0.72100
O316        O  0.31483740  0.50586806  0.18485049    -0.70900
Cu317      Cu  0.26032956  0.04544991  0.18836294     1.04600
Cu318      Cu  0.26116339  0.51105019  0.18624498     1.04300
C319        C  0.33566767  0.53295312  0.18719689     0.95400
C320        C  0.19544103  0.55174000  0.19142365     0.94600
C321        C  0.26903356  0.52662599  0.21969629     0.86700
C322        C  0.26316548  0.55770391  0.15848786     0.93000
O323        O  0.19152371  0.18715462  0.19082798    -0.70800
O324        O  0.29899374  0.19903231  0.18845733    -0.71700
O325        O  0.24732293  0.19964447  0.21335232    -0.60400
O326        O  0.24357807  0.18666472  0.16592052    -0.68800
O327        O  0.23697590  0.24638241  0.16296619    -0.68300
O328        O  0.24072938  0.25935399  0.21037815    -0.59600
O329        O  0.29241898  0.25884707  0.18547987    -0.72100
O330        O  0.18509281  0.24697896  0.18785002    -0.70900
Cu331      Cu  0.24556026  0.19099653  0.18974752     1.04600
Cu332      Cu  0.23848251  0.25499144  0.18656179     1.04300
C333        C  0.17154209  0.21541729  0.18976587     0.95400
C334        C  0.31245868  0.23063873  0.18654572     0.94600
C335        C  0.24474266  0.23151794  0.21928081     0.86700
C336        C  0.24018180  0.21458689  0.15702066     0.93000
O337        O  0.49528038  0.06247492  0.96342808    -0.70800
O338        O  0.49444681  0.06978010  0.91568442    -0.71700
O339        O  0.43993554  0.07266910  0.93978720    -0.60400
O340        O  0.04979863  0.07437554  0.93797812    -0.68800
O341        O  0.06997020  0.52488021  0.94397215    -0.68300
O342        O  0.45857231  0.52418741  0.93909002    -0.59600
O343        O  0.51343751  0.52025152  0.91497304    -0.72100
O344        O  0.51411978  0.51412422  0.96247479    -0.70900
Cu345      Cu  0.49506082  0.06834157  0.93961645     1.04600
Cu346      Cu  0.51363840  0.51533131  0.93870191     1.04300
C347        C  0.51745480  0.54279441  0.97086745     0.95400
C348        C  0.51746953  0.55097177  0.90817175     0.94600
C349        C  0.44545653  0.55649159  0.93980413     0.86700
C350        C  0.09048590  0.55267490  0.94219580     0.93000
O351        O  0.45611461  0.21778605  0.93674177    -0.70800
O352        O  0.07066130  0.23043738  0.93931481    -0.71700
O353        O  0.01614786  0.23561597  0.91531677    -0.60400
O354        O  0.01457201  0.23738962  0.96270248    -0.68800
O355        O  0.00843699  0.17741080  0.96356502    -0.68300
O356        O  0.01010560  0.17553748  0.91539512    -0.59600
O357        O  0.06435264  0.17052946  0.93975701    -0.72100
O358        O  0.45625716  0.15775016  0.93903235    -0.70900
Cu359      Cu  0.01552042  0.23815119  0.93900276     1.04600
Cu360      Cu  0.00904401  0.17403538  0.93949108     1.04300
C361        C  0.43867576  0.18764997  0.93789300     0.95400
C362        C  0.08492927  0.19855971  0.93952992     0.94600
C363        C  0.01364823  0.20557052  0.90788013     0.86700
C364        C  0.01098983  0.20811871  0.97065594     0.93000
O365        O  0.20844019  0.53502730  0.94200163    -0.70800
O366        O  0.31775684  0.51812126  0.94221346    -0.71700
O367        O  0.26382797  0.53319462  0.96587558    -0.60400
O368        O  0.26251509  0.52023592  0.91831943    -0.68800
O369        O  0.24462344  0.07513033  0.91423513    -0.68300
O370        O  0.24717776  0.07100348  0.96246912    -0.59600
O371        O  0.30066400  0.06483775  0.93789001    -0.72100
O372        O  0.19124222  0.08210621  0.93889355    -0.70900
Cu373      Cu  0.26282761  0.52462156  0.94221061     1.04600
Cu374      Cu  0.24623851  0.07538420  0.93839148     1.04300
C375        C  0.19571548  0.56727509  0.94037751     0.95400
C376        C  0.33984336  0.54475838  0.94073348     0.94600
C377        C  0.26851901  0.56491579  0.97175986     0.86700
C378        C  0.26726519  0.54779767  0.90933147     0.93000
O379        O  0.26170990  0.19131062  0.91425271    -0.70800
O380        O  0.26178919  0.17887954  0.96148723    -0.71700
O381        O  0.20577443  0.18702566  0.93802497    -0.60400
O382        O  0.31789024  0.18449094  0.93776951    -0.68800
O383        O  0.31818225  0.24436335  0.94076129    -0.68300
O384        O  0.20838079  0.24691801  0.94073333    -0.59600
O385        O  0.26278151  0.23880156  0.96454020    -0.72100
O386        O  0.26338928  0.25136273  0.91702177    -0.70900
Cu387      Cu  0.26178753  0.18328448  0.93778200     1.04600
Cu388      Cu  0.26326596  0.24735343  0.94087825     1.04300
C389        C  0.26252473  0.22311911  0.90822051     0.95400
C390        C  0.26181548  0.20676491  0.97047967     0.94600
C391        C  0.18960703  0.21786932  0.93943217     0.86700
C392        C  0.33554630  0.21444180  0.93914742     0.93000
O393        O  0.42313567  0.05347780  0.54722760    -0.70800
O394        O  0.41835570  0.44427692  0.54865006    -0.71700
O395        O  0.43408374  0.49797200  0.57227774    -0.60400
O396        O  0.41575767  0.50061734  0.52522401    -0.68800
O397        O  0.98738680  0.50059514  0.52550175    -0.68300
O398        O  0.98635707  0.50152822  0.57293919    -0.59600
O399        O  0.98050716  0.44565704  0.54928871    -0.72100
O400        O  0.98150494  0.05589321  0.54683498    -0.70900
Cu401      Cu  0.42313408  0.49955863  0.54887751     1.04600
Cu402      Cu  0.98861271  0.50081597  0.54920886     1.04300
C403        C  0.45471477  0.06764074  0.54541699     0.95400
C404        C  0.44547037  0.42283850  0.54657467     0.94600
C405        C  0.46630833  0.49336728  0.57757677     0.86700
C406        C  0.44228589  0.49702850  0.51560541     0.93000
O407        O  0.41330559  0.19479451  0.54622260    -0.70800
O408        O  0.42818243  0.30439777  0.54537290    -0.71700
O409        O  0.42693877  0.24769668  0.52183079    -0.60400
O410        O  0.41592540  0.25160606  0.56977007    -0.68800
O411        O  0.97762256  0.24987785  0.57238796    -0.68300
O412        O  0.98365584  0.24963446  0.52484228    -0.59600
O413        O  0.98876574  0.30450036  0.54884634    -0.72100
O414        O  0.97221961  0.19495080  0.54830876    -0.70900
Cu415      Cu  0.41895072  0.24984309  0.54570683     1.04600
Cu416      Cu  0.98257894  0.24942345  0.54865203     1.04300
C417        C  0.44040853  0.17302916  0.54739454     0.95400
C418        C  0.46028182  0.31749076  0.54663543     0.94600
C419        C  0.45877858  0.24307647  0.51596906     0.86700
C420        C  0.44441332  0.24814757  0.57837866     0.93000
O421        O  0.27869330  0.43791493  0.54878155    -0.70800
O422        O  0.27767287  0.05007830  0.54876083    -0.71700
O423        O  0.27021580  0.49565549  0.52608279    -0.60400
O424        O  0.28599099  0.49271979  0.57282341    -0.68800
O425        O  0.34589875  0.49112968  0.56968818    -0.68300
O426        O  0.32966826  0.49523592  0.52169062    -0.59600
O427        O  0.33742041  0.04903411  0.54541164    -0.72100
O428        O  0.33828699  0.43857807  0.54497489    -0.70900
Cu429      Cu  0.27689119  0.49424600  0.54949123     1.04600
Cu430      Cu  0.34066372  0.49314480  0.54553942     1.04300
C431        C  0.30888126  0.42075481  0.54675843     0.95400
C432        C  0.30803094  0.06704891  0.54715001     0.94600
C433        C  0.29684240  0.49613599  0.51646342     0.86700
C434        C  0.31785939  0.49118110  0.57870798     0.93000
O435        O  0.30671222  0.24417130  0.57136025    -0.70800
O436        O  0.32777384  0.24378754  0.52497278    -0.71700
O437        O  0.31578900  0.30011081  0.54803974    -0.60400
O438        O  0.31557864  0.18769889  0.54821318    -0.68800
O439        O  0.25639830  0.18946523  0.54326973    -0.68300
O440        O  0.25650085  0.29893761  0.54331693    -0.59600
O441        O  0.26869062  0.24442657  0.51964157    -0.72100
O442        O  0.24717200  0.24427545  0.56686717    -0.70900
Cu443      Cu  0.31855983  0.24390202  0.54830700     1.04600
Cu444      Cu  0.25520255  0.24423942  0.54306112     1.04300
C445        C  0.27413902  0.24443276  0.57646702     0.95400
C446        C  0.30188612  0.24434016  0.51493792     0.94600
C447        C  0.28553129  0.31700864  0.54578521     0.86700
C448        C  0.28528371  0.17109197  0.54587768     0.93000
C449        C  0.28262383  0.35764346  0.54613275    -0.14300
C450        C  0.31145906  0.38010345  0.54660040    -0.29400
H451        H  0.25550948  0.36943405  0.54570417     0.14800
H452        H  0.33856876  0.36826148  0.54654854     0.15300
C453        C  0.31079022  0.10768742  0.54729800    -0.14300
C454        C  0.28215768  0.13046168  0.54623756    -0.29400
H455        H  0.33791408  0.11926015  0.54777750     0.14800
H456        H  0.25506212  0.11893898  0.54527994     0.15300
C457        C  0.43931163  0.38260915  0.54663824    -0.14300
C458        C  0.46651066  0.35770819  0.54637983    -0.29400
H459        H  0.91395266  0.38292447  0.54852134     0.14800
H460        H  0.49451148  0.36705225  0.54622823     0.15300
C461        C  0.46054383  0.10791134  0.54584687    -0.14300
C462        C  0.43366606  0.13285581  0.54717326    -0.29400
H463        H  0.98787631  0.12643010  0.54716394     0.14800
H464        H  0.40566388  0.12365826  0.54773233     0.15300
C465        C  0.39794221  0.18615516  0.93795827    -0.14300
C466        C  0.37628049  0.21577591  0.93880730    -0.29400
H467        H  0.38542215  0.15942205  0.93765115     0.14800
H468        H  0.38886893  0.24244335  0.93942350     0.15300
C469        C  0.14904126  0.22147541  0.93955088    -0.14300
C470        C  0.12541042  0.19340139  0.93941116    -0.29400
H471        H  0.13819400  0.24898236  0.93992400     0.14800
H472        H  0.13593486  0.16576355  0.93921055     0.15300
C473        C  0.40535386  0.56350648  0.93995104    -0.14300
C474        C  0.37986769  0.53717102  0.94068443    -0.29400
H475        H  0.39652449  0.59169288  0.93956192     0.14800
H476        H  0.36225156  0.99704441  0.93647305     0.15300
C477        C  0.13081485  0.54717480  0.94230049    -0.14300
C478        C  0.15551519  0.57401955  0.94033254    -0.29400
H479        H  0.14049029  0.51950344  0.94400607     0.14800
H480        H  0.12011676  0.09094922  0.93863488     0.15300
C481        C  0.38336120  0.23481628  0.18533797    -0.11100
C482        C  0.35082798  0.23429298  0.18564687    -0.12700
C483        C  0.10058620  0.21289864  0.19090300    -0.11100
C484        C  0.13312938  0.21202784  0.19067172    -0.12700
C485        C  0.40617376  0.52436920  0.18695188    -0.11100
C486        C  0.37384252  0.52775672  0.18670740    -0.12700
C487        C  0.12468676  0.55593775  0.19332555    -0.11100
C488        C  0.15719903  0.55601668  0.19276791    -0.12700
C489        C  0.25770520  0.22916360  0.99805873    -0.14300
C490        C  0.26031093  0.20128568  0.98783139    -0.29400
H491        H  0.25716329  0.25689135  0.99359603     0.14800
H492        H  0.26078369  0.17352490  0.99226217     0.15300
C493        C  0.24883402  0.20686541  0.09478478    -0.16300
C494        C  0.24607692  0.20641613  0.10905823     0.07700
C495        C  0.24286368  0.20784933  0.12578709     0.09600
C496        C  0.24086936  0.21034681  0.14004540    -0.17200
C497        C  0.26480807  0.54303253  0.99954417    -0.14300
C498        C  0.26889873  0.57051384  0.98915380    -0.29400
H499        H  0.25632249  0.09105586  0.99219609     0.14800
H500        H  0.27274378  0.59805276  0.99349621     0.15300
C501        C  0.26304034  0.56522266  0.14171421    -0.16300
C502        C  0.26376417  0.56870940  0.12746482     0.07700
C503        C  0.25298473  0.03225679  0.10794914     0.09600
C504        C  0.26611740  0.56848466  0.09635773    -0.17200
C505        C  0.38965396  0.18844904  0.04608854    -0.14300
C506        C  0.36766241  0.21798882  0.04675662    -0.29400
H507        H  0.37734496  0.16161708  0.04600647     0.14800
H508        H  0.38005430  0.24476316  0.04716992     0.15300
C509        C  0.11754849  0.19012309  0.04641525    -0.14300
C510        C  0.13959351  0.21952505  0.04595720    -0.29400
H511        H  0.12985284  0.16324466  0.04681380     0.14800
H512        H  0.12729635  0.24642310  0.04582972     0.15300
C513        C  0.00960141  0.21100202  0.98814362    -0.14300
C514        C  0.00545536  0.18234161  0.99786112    -0.29400
H515        H  0.50996451  0.22925059  0.99095776     0.14800
H516        H  0.00343613  0.15519595  0.99289069     0.15300
C517        C  0.00250991  0.20325531  0.09493193    -0.16300
C518        C  0.00148888  0.20668849  0.10918593     0.07700
C519        C  0.99989201  0.21105156  0.12588499     0.09600
C520        C  0.99828059  0.21496218  0.14010585    -0.17200
C521        C  0.40370531  0.56912100  0.04747218    -0.14300
C522        C  0.37904571  0.54189346  0.04792023    -0.29400
H523        H  0.38180262  0.08782705  0.04891671     0.14800
H524        H  0.38867245  0.51394545  0.04825099     0.15300
C525        C  0.12905732  0.54355620  0.04957878    -0.14300
C526        C  0.15351899  0.57078456  0.04816105    -0.29400
H527        H  0.12662394  0.00862862  0.04588062     0.14800
H528        H  0.14375866  0.59854302  0.04692400     0.15300
C529        C  0.51860268  0.56743466  0.99832163    -0.09500
C530        C  0.51648058  0.53904201  0.98832190    -0.29400
H531        H  0.50285852  0.08255551  0.99229339     0.14800
H532        H  0.02135587  0.60226193  0.99490525     0.15300
C533        C  0.51742020  0.53118128  0.14034834    -0.16300
C534        C  0.51737605  0.53497220  0.12611157     0.07700
C535        C  0.51118336  0.03149411  0.10827439     0.09600
C536        C  0.51670310  0.54315210  0.09517726    -0.17200
C537        C  0.28579803  0.24766229  0.48653598    -0.14300
C538        C  0.31125915  0.24509938  0.49785481    -0.29400
H539        H  0.25733067  0.24892808  0.48995503     0.14800
H540        H  0.33979110  0.24390220  0.49455841     0.15300
C541        C  0.28268283  0.38691158  0.43975671    -0.14300
C542        C  0.31088834  0.36353801  0.43891904    -0.29400
H543        H  0.25532883  0.37593005  0.44048738     0.14800
H544        H  0.33830086  0.37449271  0.43863093     0.15300
C545        C  0.27815571  0.11367539  0.43891915    -0.14300
C546        C  0.30678230  0.13631203  0.43762450    -0.29400
H547        H  0.25110797  0.12528897  0.44015320     0.14800
H548        H  0.33384816  0.12453731  0.43687011     0.15300
C549        C  0.31336631  0.49938730  0.48785547    -0.14300
C550        C  0.28815168  0.49774267  0.49930247    -0.29400
H551        H  0.33888365  0.00127191  0.49000236     0.14800
H552        H  0.25957064  0.49753925  0.49601258     0.15300
C553        C  0.43860366  0.24503274  0.48781562    -0.14300
C554        C  0.46514802  0.24212633  0.49867595    -0.29400
H555        H  0.41050990  0.24780873  0.49161026     0.14800
H556        H  0.98564220  0.24949910  0.49416846     0.15300
C557        C  0.44105107  0.38284816  0.43910690    -0.14300
C558        C  0.46856963  0.35863517  0.44004325    -0.29400
H559        H  0.41337218  0.37265335  0.43848901     0.14800
H560        H  0.98677602  0.37621909  0.44317271     0.15300
C561        C  0.43048362  0.10874265  0.43755423    -0.14300
C562        C  0.45931022  0.13129812  0.43853441    -0.29400
H563        H  0.40330423  0.12035897  0.43726624     0.14800
H564        H  0.89454416  0.13449496  0.43777609     0.15300
C565        C  0.46191435  0.49601142  0.48762015    -0.14300
C566        C  0.43496379  0.49808118  0.49830398    -0.29400
H567        H  0.48302867  0.99502475  0.48969576     0.14800
H568        H  0.98780069  0.49981257  0.49514190     0.15300
C569        C  0.24695230  0.23614798  0.23621980    -0.11100
C570        C  0.25045010  0.23962168  0.25039238    -0.12700
C571        C  0.29451293  0.25241165  0.34530832    -0.16300
C572        C  0.30227437  0.25267316  0.35925972     0.07700
C573        C  0.31028923  0.25239474  0.37573737     0.09600
C574        C  0.31399882  0.25188975  0.38999538    -0.17200
C575        C  0.27178446  0.38887415  0.29486085    -0.11100
C576        C  0.27234743  0.35641011  0.29487824    -0.12700
C577        C  0.26765617  0.13857665  0.30008400    -0.11100
C578        C  0.26608618  0.10618812  0.29982899    -0.12700
C579        C  0.27326047  0.51107944  0.25031308    -0.11100
C580        C  0.27152052  0.51791230  0.23631472    -0.12700
C581        C  0.27282537  0.49221914  0.34674264    -0.16300
C582        C  0.27133720  0.49343780  0.36105104     0.07700
C583        C  0.26176733  0.99767842  0.37735777     0.09600
C584        C  0.27101854  0.49788061  0.39211939    -0.17200
C585        C  0.48540697  0.23841536  0.24985960    -0.11100
C586        C  0.48684908  0.23608459  0.23558910    -0.12700
C587        C  0.48050466  0.24760348  0.34653883    -0.16300
C588        C  0.48001729  0.24755888  0.36085482     0.07700
C589        C  0.95688599  0.25768725  0.37787419     0.09600
C590        C  0.47637262  0.24642786  0.39190254    -0.17200
C591        C  0.48871168  0.38551165  0.29596959    -0.11100
C592        C  0.48827596  0.35302836  0.29606232    -0.12700
C593        C  0.47500043  0.13513753  0.29969355    -0.11100
C594        C  0.47284898  0.10275518  0.29937816    -0.12700
C595        C  0.51105440  0.50235829  0.25089530    -0.11100
C596        C  0.51314495  0.50587498  0.23666406    -0.12700
C597        C  0.47116080  0.49071143  0.34613027    -0.16300
C598        C  0.46276348  0.49144096  0.35999471     0.07700
C599        C  0.96536443  0.50036985  0.37935836     0.09600
C600        C  0.44798077  0.49435781  0.39043606    -0.17200
C601        C  0.26162374  0.23005311  0.84591130    -0.16300
C602        C  0.26175394  0.22966776  0.86021572     0.07700
C603        C  0.26211065  0.22870337  0.87697561     0.09600
C604        C  0.26238305  0.22694363  0.89126033    -0.17200
C605        C  0.26730058  0.54317526  0.89232915    -0.16300
C606        C  0.23500532  0.04416295  0.87495929     0.07700
C607        C  0.26758160  0.53478518  0.86134779     0.09600
C608        C  0.26748123  0.53082220  0.84709792    -0.17200
C609        C  0.37051520  0.20639537  0.79806971    -0.11100
C610        C  0.40293408  0.20327559  0.79775032    -0.12700
C611        C  0.15628440  0.25495820  0.79644441    -0.11100
C612        C  0.12368266  0.25612398  0.79640996    -0.12700
C613        C  0.01986733  0.22372703  0.84603819    -0.16300
C614        C  0.01896588  0.21722214  0.86008707     0.07700
C615        C  0.51375657  0.18016600  0.87536704     0.09600
C616        C  0.01516367  0.20618383  0.89080648    -0.17200
C617        C  0.37107836  0.00853154  0.79932826    -0.11100
C618        C  0.33863527  0.00760060  0.79869223    -0.12700
C619        C  0.08869959  0.03186048  0.79484661    -0.11100
C620        C  0.12120734  0.03076771  0.79442077    -0.12700
C621        C  0.51698097  0.55269333  0.89109401    -0.16300
C622        C  0.48896691  0.04192859  0.87617828     0.07700
C623        C  0.01740996  0.53373348  0.86310728     0.09600
C624        C  0.51551111  0.54587357  0.84573119    -0.17200
C625        C  0.27064332  0.23388804  0.73510063    -0.11100
C626        C  0.26858174  0.23259603  0.74935772    -0.12700
C627        C  0.27200882  0.24682007  0.63865245    -0.16300
C628        C  0.27006905  0.24676274  0.62436822     0.07700
C629        C  0.26802845  0.24597592  0.60762393     0.09600
C630        C  0.26851538  0.24514624  0.59332314    -0.17200
C631        C  0.28126900  0.38234364  0.69084981    -0.11100
C632        C  0.27851916  0.35000299  0.69042955    -0.12700
C633        C  0.26936582  0.09994097  0.68416940    -0.11100
C634        C  0.26910996  0.13238723  0.68412432    -0.12700
C635        C  0.26871366  0.49974297  0.73645933    -0.11100
C636        C  0.26607682  0.50330447  0.75069127    -0.12700
C637        C  0.32123421  0.48933791  0.59577023    -0.16300
C638        C  0.31892519  0.48788222  0.61009074     0.07700
C639        C  0.30553943  0.98802853  0.62573852     0.09600
C640        C  0.30657135  0.48638509  0.64085103    -0.17200
C641        C  0.99702995  0.26061649  0.73657270    -0.11100
C642        C  0.00295787  0.25847787  0.75064788    -0.12700
C643        C  0.45725998  0.25743397  0.64030079    -0.16300
C644        C  0.45074816  0.25637720  0.62624448     0.07700
C645        C  0.44474995  0.25374780  0.60965899     0.09600
C646        C  0.44232114  0.25106814  0.59540336    -0.17200
C647        C  0.50414327  0.39034207  0.69020656    -0.11100
C648        C  0.50119957  0.35789892  0.69014793    -0.12700
C649        C  0.46028496  0.14290749  0.68492381    -0.11100
C650        C  0.45874760  0.11041431  0.68466727    -0.12700
C651        C  0.47195318  0.01089175  0.74937126    -0.11100
C652        C  0.46949354  0.00821860  0.73514861    -0.12700
C653        C  0.48550424  0.49321193  0.63960116    -0.16300
C654        C  0.48150954  0.49246689  0.62537098     0.07700
C655        C  0.46430310  0.99368438  0.60750473     0.09600
C656        C  0.47234906  0.49255009  0.59446821    -0.17200
O657        O  0.43874244  0.94562973  0.68881253    -0.70800
O658        O  0.46593705  0.55213751  0.68774223    -0.71700
O659        O  0.46247544  0.49464356  0.66559733    -0.60400
O660        O  0.47601010  0.50261082  0.71291387    -0.68800
O661        O  0.99099946  0.01197388  0.70999573    -0.68300
O662        O  0.97901032  0.00888346  0.66259552    -0.59600
O663        O  0.02566246  0.56617814  0.68734125    -0.72100
O664        O  0.98141855  0.95661021  0.68716017    -0.70900
Cu665      Cu  0.46708431  0.49836545  0.68938677     1.04600
Cu666      Cu  0.98713256  0.01023108  0.68620649     1.04300
C667        C  0.95044124  0.94168212  0.68885338     0.95400
C668        C  0.99684750  0.58489430  0.68938612     0.94600
C669        C  0.46406987  0.99690564  0.65565184     0.86700
C670        C  0.00445376  0.51454562  0.72101816     0.93000
O671        O  0.45510818  0.69392228  0.68877460    -0.70800
O672        O  0.44733824  0.80188013  0.69192391    -0.71700
O673        O  0.44226261  0.75072289  0.66685229    -0.60400
O674        O  0.45942776  0.74444815  0.71394593    -0.68800
O675        O  0.01121691  0.76989820  0.71156550    -0.68300
O676        O  0.99615298  0.76883155  0.66408314    -0.59600
O677        O  0.99218647  0.82235270  0.68820033    -0.72100
O678        O  0.01524154  0.71644137  0.68739580    -0.70900
Cu679      Cu  0.44894770  0.74766733  0.69053067     1.04600
Cu680      Cu  0.00578765  0.76988659  0.68768805     1.04300
C681        C  0.48622784  0.67964959  0.68629558     0.95400
C682        C  0.47605924  0.82089818  0.69032745     0.94600
C683        C  0.46920171  0.75359921  0.65740839     0.86700
C684        C  0.98423402  0.76371501  0.72070834     0.93000
O685        O  0.28229134  0.99358471  0.71288884    -0.70800
O686        O  0.31018241  0.98729005  0.66676635    -0.71700
O687        O  0.31830138  0.54446064  0.68958241    -0.60400
O688        O  0.29359644  0.93622286  0.69102657    -0.68800
O689        O  0.23504896  0.93808582  0.68431278    -0.68300
O690        O  0.25864445  0.54572716  0.68502150    -0.59600
O691        O  0.25189022  0.98877059  0.65987107    -0.72100
O692        O  0.22372408  0.99508963  0.70645415    -0.70900
Cu693      Cu  0.29799203  0.99021387  0.69004506     1.04600
Cu694      Cu  0.23535199  0.99179431  0.68288086     1.04300
C695        C  0.24889810  0.99558274  0.71695029     0.95400
C696        C  0.28559836  0.98755436  0.65607272     0.94600
C697        C  0.28888545  0.56185688  0.68691624     0.86700
C698        C  0.26350319  0.92038038  0.68811832     0.93000
O699        O  0.29843456  0.74146116  0.71279929    -0.70800
O700        O  0.30532259  0.74658844  0.66478940    -0.71700
O701        O  0.29622381  0.79741960  0.68971358    -0.60400
O702        O  0.30913983  0.69092487  0.68790438    -0.68800
O703        O  0.24914368  0.68382698  0.68612875    -0.68300
O704        O  0.23611678  0.79139509  0.68793862    -0.59600
O705        O  0.24536943  0.73996079  0.66331396    -0.72100
O706        O  0.23856060  0.73490382  0.71077066    -0.70900
Cu707      Cu  0.30441689  0.74436977  0.68887374     1.04600
Cu708      Cu  0.24017938  0.73728379  0.68698019     1.04300
C709        C  0.26720743  0.73731243  0.71924558     0.95400
C710        C  0.27615181  0.74389199  0.65657611     0.94600
C711        C  0.26447092  0.81113584  0.68905815     0.86700
C712        C  0.28127392  0.67072122  0.68672047     0.93000
O713        O  0.51619697  0.56793506  0.81953213    -0.70800
O714        O  0.51675521  0.55212184  0.77218550    -0.71700
O715        O  0.46251675  0.56128386  0.79560363    -0.60400
O716        O  0.07432013  0.54342049  0.79978158    -0.68800
O717        O  0.03537556  0.99885080  0.79720905    -0.68300
O718        O  0.42999020  0.98568916  0.80016583    -0.59600
O719        O  0.48026569  0.98704221  0.77497634    -0.72100
O720        O  0.48618744  0.99927072  0.82236928    -0.70900
Cu721      Cu  0.51657909  0.56218484  0.79572019     1.04600
Cu722      Cu  0.48360973  0.99090455  0.79877698     1.04300
C723        C  0.51557949  0.54044686  0.82879848     0.95400
C724        C  0.51605256  0.51976319  0.76666860     0.94600
C725        C  0.44527011  0.53156932  0.79739733     0.86700
C726        C  0.08679990  0.51111048  0.80068213     0.93000
O727        O  0.45018713  0.74665399  0.80146753    -0.70800
O728        O  0.05290603  0.76822466  0.80116934    -0.71700
O729        O  0.99680032  0.77917211  0.77849226    -0.60400
O730        O  0.00053980  0.75766415  0.82562206    -0.68800
O731        O  0.99973892  0.69844052  0.82044755    -0.68300
O732        O  0.99599754  0.71979398  0.77365538    -0.59600
O733        O  0.05222458  0.70882555  0.79612560    -0.72100
O734        O  0.44282045  0.68798879  0.79583981    -0.70900
Cu735      Cu  0.99892324  0.77077382  0.80225661     1.04600
Cu736      Cu  0.99803605  0.70722123  0.79687089     1.04300
C737        C  0.42978688  0.71933210  0.79897970     0.95400
C738        C  0.06942766  0.73848334  0.79826948     0.94600
C739        C  0.99551291  0.75262486  0.76871715     0.86700
C740        C  0.00015846  0.72461073  0.83038112     0.93000
O741        O  0.28047455  0.98284538  0.79889454    -0.70800
O742        O  0.17310365  0.99513153  0.79676964    -0.71700
O743        O  0.22842321  0.98098928  0.77398831    -0.60400
O744        O  0.22565062  0.99717099  0.82152280    -0.68800
O745        O  0.26321177  0.55362529  0.82106240    -0.68300
O746        O  0.26161822  0.53992317  0.77352737    -0.59600
O747        O  0.20895522  0.54035962  0.79801841    -0.72100
O748        O  0.31580825  0.55345301  0.79657575    -0.70900
Cu749      Cu  0.22656534  0.98690779  0.79790531     1.04600
Cu750      Cu  0.26209375  0.54893144  0.79718151     1.04300
C751        C  0.33615915  0.52557298  0.79795033     0.95400
C752        C  0.19573121  0.50867288  0.79988419     0.94600
C753        C  0.26522725  0.50803155  0.76769850     0.86700
C754        C  0.22903704  0.02937430  0.82705467     0.93000
O755        O  0.25220995  0.70358355  0.77487273    -0.70800
O756        O  0.24539495  0.70345356  0.82276701    -0.71700
O757        O  0.19475808  0.70587619  0.79747278    -0.60400
O758        O  0.30234006  0.70048707  0.80013289    -0.68800
O759        O  0.30550509  0.76094437  0.80021199    -0.68300
O760        O  0.19732529  0.76634463  0.79762635    -0.59600
O761        O  0.24834765  0.76379434  0.82279445    -0.72100
O762        O  0.25494871  0.76393465  0.77509408    -0.70900
Cu763      Cu  0.24851185  0.70121934  0.79881181     1.04600
Cu764      Cu  0.25157068  0.76589828  0.79893826     1.04300
C765        C  0.25527733  0.73385809  0.76752905     0.95400
C766        C  0.24589416  0.73367474  0.83026105     0.94600
C767        C  0.17918123  0.73684403  0.79727779     0.86700
C768        C  0.32073710  0.72976107  0.80038171     0.93000
O769        O  0.44333405  0.93982479  0.29278357    -0.70800
O770        O  0.46618691  0.55018733  0.29781531    -0.71700
O771        O  0.45521463  0.99668370  0.27079058    -0.60400
O772        O  0.43018296  0.99132783  0.31721055    -0.68800
O773        O  0.97910329  0.99958675  0.32238737    -0.68300
O774        O  0.99905106  0.00659875  0.27570289    -0.59600
O775        O  0.02309652  0.55778133  0.30472948    -0.72100
O776        O  0.98810428  0.94883559  0.29742331    -0.70900
Cu777      Cu  0.44077465  0.99395607  0.29378437     1.04600
Cu778      Cu  0.99086373  0.00288011  0.29919121     1.04300
C779        C  0.47314160  0.92305166  0.29537903     0.95400
C780        C  0.49689525  0.56491189  0.30060653     0.94600
C781        C  0.48843491  0.99731638  0.26640029     0.86700
C782        C  0.45558449  0.99055887  0.32753694     0.93000
O783        O  0.45355629  0.79443882  0.29776580    -0.70800
O784        O  0.46511523  0.68793010  0.30128889    -0.71700
O785        O  0.46400237  0.74545686  0.32327452    -0.60400
O786        O  0.45536612  0.73656743  0.27579840    -0.68800
O787        O  0.00670720  0.75059308  0.27620686    -0.68300
O788        O  0.00113337  0.76410081  0.32367191    -0.59600
O789        O  0.01230295  0.70493005  0.30295764    -0.72100
O790        O  0.99633919  0.81079112  0.29691157    -0.70900
Cu791      Cu  0.45741594  0.74093550  0.29962077     1.04600
Cu792      Cu  0.00624620  0.75806728  0.29995652     1.04300
C793        C  0.48168536  0.81412316  0.29608085     0.95400
C794        C  0.49673749  0.67388961  0.30069888     0.94600
C795        C  0.49532475  0.74924703  0.32963226     0.86700
C796        C  0.48411068  0.73791020  0.26732795     0.93000
O797        O  0.23781493  0.94276647  0.29667922    -0.70800
O798        O  0.24578878  0.55244413  0.30026515    -0.71700
O799        O  0.23747134  0.99883798  0.27383560    -0.60400
O800        O  0.23540501  0.99493730  0.32140091    -0.68800
O801        O  0.29582659  0.99583850  0.32206364    -0.68300
O802        O  0.29791061  0.99965697  0.27418565    -0.59600
O803        O  0.30634360  0.55006703  0.30028859    -0.72100
O804        O  0.29835890  0.94403146  0.29722284    -0.70900
Cu805      Cu  0.23447878  0.99677934  0.29759191     1.04600
Cu806      Cu  0.29927956  0.99769012  0.29814183     1.04300
C807        C  0.26854535  0.92663720  0.29656283     0.95400
C808        C  0.27673235  0.56793565  0.30078507     0.94600
C809        C  0.26785017  0.99985198  0.26655095     0.86700
C810        C  0.26516381  0.99516869  0.32919811     0.93000
O811        O  0.30386970  0.80149712  0.29327608    -0.70800
O812        O  0.30798436  0.69375815  0.29650947    -0.71700
O813        O  0.29284733  0.74324383  0.27170470    -0.60400
O814        O  0.31967391  0.75143093  0.31797486    -0.68800
O815        O  0.26114992  0.75043195  0.32446156    -0.68300
O816        O  0.23419805  0.74210713  0.27795940    -0.59600
O817        O  0.24923029  0.69314927  0.30291602    -0.72100
O818        O  0.24514368  0.80001839  0.29966012    -0.70900
Cu819      Cu  0.30818197  0.74760351  0.29462299     1.04600
Cu820      Cu  0.24535792  0.74647432  0.30146752     1.04300
C821        C  0.27375628  0.81750685  0.29605412     0.95400
C822        C  0.27908949  0.67676847  0.30026085     0.94600
C823        C  0.25949018  0.74090552  0.26757148     0.86700
C824        C  0.29469762  0.75174342  0.32847965     0.93000
O825        O  0.95955682  0.00182293  0.46308609    -0.70800
O826        O  0.96517370  0.99963196  0.41514566    -0.71700
O827        O  0.98104365  0.55638686  0.44313679    -0.60400
O828        O  0.95662383  0.94601309  0.43948537    -0.68800
O829        O  0.41054149  0.93868748  0.43895130    -0.68300
O830        O  0.42278008  0.55244668  0.43929380    -0.59600
O831        O  0.40260742  0.99300034  0.41478122    -0.72100
O832        O  0.41537415  0.99426986  0.46288733    -0.70900
Cu833      Cu  0.96470720  0.00051496  0.43919077     1.04600
Cu834      Cu  0.40633900  0.99363003  0.43893775     1.04300
C835        C  0.44770997  0.99544274  0.46861889     0.95400
C836        C  0.43118377  0.99388462  0.40611533     0.94600
C837        C  0.45297048  0.56941165  0.43852357     0.86700
C838        C  0.44088724  0.92191718  0.43763096     0.93000
O839        O  0.97640687  0.75303372  0.41828350    -0.70800
O840        O  0.96340618  0.75219772  0.46551920    -0.71700
O841        O  0.96638987  0.69699418  0.44161392    -0.60400
O842        O  0.97281619  0.80785642  0.44214220    -0.68800
O843        O  0.44133709  0.80121789  0.43669908    -0.68300
O844        O  0.44641795  0.68942351  0.43679762    -0.59600
O845        O  0.43152095  0.74491181  0.46000501    -0.72100
O846        O  0.45491803  0.74590002  0.41346756    -0.70900
Cu847      Cu  0.97180387  0.75237038  0.44200192     1.04600
Cu848      Cu  0.44150099  0.74524183  0.43655193     1.04300
C849        C  0.48785678  0.74753608  0.40877718     0.95400
C850        C  0.45722364  0.74575503  0.47017212     0.94600
C851        C  0.47693655  0.67339260  0.43941185     0.86700
C852        C  0.47045034  0.81948920  0.43930501     0.93000
O853        O  0.30291807  0.00031239  0.41332351    -0.70800
O854        O  0.32588101  0.00077341  0.45970292    -0.71700
O855        O  0.31456940  0.94444923  0.43656603    -0.60400
O856        O  0.31925677  0.55608371  0.43725359    -0.68800
O857        O  0.26000789  0.55583569  0.44200980    -0.68300
O858        O  0.25547940  0.94452693  0.44170341    -0.59600
O859        O  0.26706647  0.99918199  0.46544459    -0.72100
O860        O  0.24364207  0.99939142  0.41832860    -0.70900
Cu861      Cu  0.31586964  0.00062572  0.43635670     1.04600
Cu862      Cu  0.25279595  0.99935554  0.44207869     1.04300
C863        C  0.27008300  0.99964231  0.40848369     0.95400
C864        C  0.30041513  0.99979474  0.46993151     0.94600
C865        C  0.28486120  0.92698045  0.43903232     0.86700
C866        C  0.28928283  0.57347542  0.43945563     0.93000
O867        O  0.34743356  0.75141447  0.41601166    -0.70800
O868        O  0.33138934  0.74995334  0.46404147    -0.71700
O869        O  0.34173948  0.69587089  0.43982861    -0.60400
O870        O  0.33995630  0.80566397  0.44017879    -0.68800
O871        O  0.28029394  0.80627944  0.43645896    -0.68300
O872        O  0.28202973  0.69395366  0.43637856    -0.59600
O873        O  0.27190987  0.74977697  0.45965881    -0.72100
O874        O  0.28749438  0.75045239  0.41287992    -0.70900
Cu875      Cu  0.34220154  0.75076957  0.44016384     1.04600
Cu876      Cu  0.27840131  0.75009477  0.43621095     1.04300
C877        C  0.31935406  0.75117914  0.40699082     0.95400
C878        C  0.29859621  0.74947551  0.46928513     0.94600
C879        C  0.31264150  0.67739961  0.43811562     0.86700
C880        C  0.31040427  0.82348930  0.43830782     0.93000
O881        O  0.05558548  0.01388008  0.04771744    -0.70800
O882        O  0.44502096  0.02175667  0.04570014    -0.71700
O883        O  0.49826839  0.02010046  0.02103949    -0.60400
O884        O  0.50250746  0.01120014  0.06854174    -0.68800
O885        O  0.51979232  0.57905133  0.07214033    -0.68300
O886        O  0.52064328  0.59066319  0.02463398    -0.59600
O887        O  0.46503817  0.59074382  0.04846848    -0.72100
O888        O  0.07488033  0.58112600  0.04840026    -0.70900
Cu889      Cu  0.50017305  0.01382481  0.04471462     1.04600
Cu890      Cu  0.52029973  0.58685413  0.04847192     1.04300
C891        C  0.07623838  0.04172807  0.04627173     0.95400
C892        C  0.43137081  0.05375816  0.04697299     0.94600
C893        C  0.50090986  0.05145678  0.01461802     0.86700
C894        C  0.50688179  0.03947582  0.07709874     0.93000
O895        O  0.03050182  0.65961321  0.04881213    -0.70800
O896        O  0.41972060  0.67185727  0.04881293    -0.71700
O897        O  0.47409778  0.65565872  0.02537033    -0.60400
O898        O  0.97620165  0.66899134  0.07271707    -0.68800
O899        O  0.98282666  0.72884888  0.07085418    -0.68300
O900        O  0.98175029  0.71969818  0.02297667    -0.59600
O901        O  0.42706127  0.73069500  0.04415327    -0.72100
O902        O  0.03710252  0.71929821  0.04690732    -0.70900
Cu903      Cu  0.97499307  0.66302886  0.04910645     1.04600
Cu904      Cu  0.98234745  0.72675756  0.04684676     1.04300
C905        C  0.05118888  0.68752471  0.04782668     0.95400
C906        C  0.40604664  0.70356760  0.04660084     0.94600
C907        C  0.97830554  0.68818070  0.01667088     0.86700
C908        C  0.98000280  0.70001041  0.07924145     0.93000
O909        O  0.26933700  0.58012170  0.02291854    -0.70800
O910        O  0.27038808  0.59232326  0.07050104    -0.71700
O911        O  0.32508862  0.57987706  0.04677458    -0.60400
O912        O  0.21486262  0.59238010  0.04665055    -0.68800
O913        O  0.19473376  0.02647922  0.04447532    -0.68300
O914        O  0.30451657  0.01298272  0.04361240    -0.59600
O915        O  0.24990074  0.01320442  0.06774719    -0.72100
O916        O  0.24912314  0.02669967  0.02025679    -0.70900
Cu917      Cu  0.27015045  0.58820832  0.04661364     1.04600
Cu918      Cu  0.24937799  0.01782241  0.04390516     1.04300
C919        C  0.25287493  0.05848837  0.01428592     0.95400
C920        C  0.25355525  0.04090814  0.07672936     0.94600
C921        C  0.32593747  0.04012369  0.04525095     0.86700
C922        C  0.18119298  0.05839956  0.04598836     0.93000
O923        O  0.17005862  0.67392926  0.04588963    -0.70800
O924        O  0.27979461  0.66191585  0.04669889    -0.71700
O925        O  0.22302964  0.65975441  0.07009453    -0.60400
O926        O  0.22729845  0.67742931  0.02248215    -0.68800
O927        O  0.23319629  0.73651228  0.02706171    -0.68300
O928        O  0.23060066  0.71894319  0.07396994    -0.59600
O929        O  0.28721971  0.72106085  0.05044883    -0.72100
O930        O  0.17656295  0.73297069  0.05027561    -0.70900
Cu931      Cu  0.22482228  0.66622284  0.04613792     1.04600
Cu932      Cu  0.23207382  0.72937329  0.05059694     1.04300
C933        C  0.15592286  0.70535372  0.04808381     0.95400
C934        C  0.30084745  0.68922698  0.04850065     0.94600
C935        C  0.22624065  0.68691988  0.07945827     0.86700
C936        C  0.23115847  0.71003367  0.01735080     0.93000
O937        O  0.45689507  0.97919750  0.18465971    -0.70800
O938        O  0.05886849  0.99751526  0.18853690    -0.71700
O939        O  0.50756443  0.97631437  0.20998876    -0.60400
O940        O  0.51381529  0.98650874  0.16234808    -0.68800
O941        O  0.51796426  0.55476069  0.16624239    -0.68300
O942        O  0.51538518  0.54231509  0.21374409    -0.59600
O943        O  0.06612888  0.57988722  0.19476931    -0.72100
O944        O  0.46279986  0.55124993  0.18941478    -0.70900
Cu945      Cu  0.51092124  0.97913630  0.18607921     1.04600
Cu946      Cu  0.51673220  0.55070993  0.19009049     1.04300
C947        C  0.43876842  0.00872256  0.18535719     0.95400
C948        C  0.07833275  0.02544507  0.19126167     0.94600
C949        C  0.50502670  0.00486594  0.21856188     0.86700
C950        C  0.51309726  0.01823589  0.15614280     0.93000
O951        O  0.43442398  0.68817043  0.18764065    -0.70800
O952        O  0.03666404  0.68551121  0.19231877    -0.71700
O953        O  0.98100446  0.69185434  0.21520153    -0.60400
O954        O  0.98466438  0.67816504  0.16760518    -0.68800
O955        O  0.47991177  0.75486526  0.16335904    -0.68300
O956        O  0.47621973  0.75906072  0.21098537    -0.59600
O957        O  0.03603806  0.74561195  0.18909809    -0.72100
O958        O  0.42475603  0.74790500  0.18643962    -0.70900
Cu959      Cu  0.98285619  0.68253353  0.19154462     1.04600
Cu960      Cu  0.47777128  0.75902121  0.18714084     1.04300
C961        C  0.41297193  0.71532375  0.18677840     0.95400
C962        C  0.05317684  0.71576577  0.19109765     0.94600
C963        C  0.48060008  0.72999828  0.21906123     0.86700
C964        C  0.98458061  0.70631422  0.15868571     0.93000
O965        O  0.32316282  0.56452196  0.19026218    -0.70800
O966        O  0.21616905  0.57903093  0.19352779    -0.71700
O967        O  0.27213259  0.55966330  0.21516569    -0.60400
O968        O  0.26764687  0.58351769  0.16843507    -0.68800
O969        O  0.25319891  0.98841695  0.16215812    -0.68300
O970        O  0.26071166  0.97812890  0.20970556    -0.59600
O971        O  0.20281722  0.98601747  0.18777197    -0.72100
O972        O  0.31074209  0.98023175  0.18424844    -0.70900
Cu973      Cu  0.27003482  0.57381208  0.19202935     1.04600
Cu974      Cu  0.25669607  0.98104844  0.18586654     1.04300
C975        C  0.32919776  0.00946842  0.18496637     0.95400
C976        C  0.18774895  0.01697749  0.18964878     0.94600
C977        C  0.26370301  0.00665293  0.21824801     0.86700
C978        C  0.25409356  0.02009225  0.15591728     0.93000
O979        O  0.17869254  0.68278642  0.19370445    -0.70800
O980        O  0.28668133  0.67795297  0.19024554    -0.71700
O981        O  0.23738481  0.69079710  0.21544905    -0.60400
O982        O  0.22825022  0.66981314  0.16852792    -0.68800
O983        O  0.22959411  0.72912180  0.16354058    -0.68300
O984        O  0.23883892  0.75008569  0.21044022    -0.59600
O985        O  0.28773820  0.73737893  0.18520390    -0.72100
O986        O  0.18036443  0.74220781  0.18869906    -0.70900
Cu987      Cu  0.23263173  0.67821433  0.19217268     1.04600
Cu988      Cu  0.23413810  0.74176945  0.18679625     1.04300
C989        C  0.16271881  0.71324137  0.19163115     0.95400
C990        C  0.30400910  0.70712119  0.18722978     0.94600
C991        C  0.23991878  0.72365347  0.22027948     0.86700
C992        C  0.22772708  0.69624272  0.15868328     0.93000
O993        O  0.52133058  0.57387279  0.96424001    -0.70800
O994        O  0.52185347  0.57991539  0.91632016    -0.71700
O995        O  0.46696339  0.58372804  0.94033422    -0.60400
O996        O  0.07623524  0.58423610  0.94032773    -0.68800
O997        O  0.04267614  0.01489766  0.94088542    -0.68300
O998        O  0.43213383  0.01306349  0.93799920    -0.59600
O999        O  0.48725903  0.00991633  0.91417420    -0.72100
O1000       O  0.48766137  0.00277949  0.96158209    -0.70900
Cu1001     Cu  0.52192762  0.57908167  0.94032733     1.04600
Cu1002     Cu  0.48720745  0.00448560  0.93780933     1.04300
C1003       C  0.49185013  0.03129123  0.97000188     0.95400
C1004       C  0.49067943  0.04082967  0.90748626     0.94600
C1005       C  0.41869358  0.04521649  0.93885409     0.86700
C1006       C  0.06357680  0.04244070  0.93936876     0.93000
O1007       O  0.43265549  0.71667494  0.93739212    -0.70800
O1008       O  0.04622276  0.72820972  0.94017718    -0.71700
O1009       O  0.99156978  0.73023135  0.91610301    -0.60400
O1010       O  0.98995341  0.73556173  0.96344108    -0.68800
O1011       O  0.98485678  0.67558410  0.96513889    -0.68300
O1012       O  0.98724025  0.67004885  0.91694829    -0.59600
O1013       O  0.04115999  0.66825833  0.94150308    -0.72100
O1014       O  0.43161482  0.65670603  0.93973262    -0.70900
Cu1015     Cu  0.99082321  0.73446004  0.93975952     1.04600
Cu1016     Cu  0.98587980  0.67029532  0.94110168     1.04300
C1017       C  0.41461922  0.68687479  0.93854759     0.95400
C1018       C  0.06114144  0.69665684  0.94086667     0.94600
C1019       C  0.99007902  0.69964385  0.90903974     0.86700
C1020       C  0.98683784  0.70685531  0.97179928     0.93000
O1021       O  0.18142501  0.02270392  0.93798002    -0.70800
O1022       O  0.29106471  0.00541201  0.93685130    -0.71700
O1023       O  0.23744551  0.01157236  0.96111629    -0.60400
O1024       O  0.23490210  0.01559337  0.91358696    -0.68800
O1025       O  0.27210153  0.57941066  0.91522696    -0.68300
O1026       O  0.27295386  0.59235299  0.96267671    -0.59600
O1027       O  0.32742327  0.57719926  0.93922336    -0.72100
O1028       O  0.21758561  0.59411359  0.93876784    -0.70900
Cu1029     Cu  0.23590455  0.01183677  0.93734977     1.04600
Cu1030     Cu  0.27281634  0.58782431  0.93886725     1.04300
C1031       C  0.16907353  0.05531649  0.93856406     0.95400
C1032       C  0.31314594  0.03230623  0.93735449     0.94600
C1033       C  0.24293330  0.04019348  0.96932044     0.86700
C1034       C  0.23912289  0.04582537  0.90640692     0.93000
O1035       O  0.23795009  0.69384319  0.91507881    -0.70800
O1036       O  0.23768991  0.67469040  0.96191228    -0.71700
O1037       O  0.18184956  0.68633329  0.93869426    -0.60400
O1038       O  0.29398028  0.68404932  0.93842470    -0.68800
O1039       O  0.29414308  0.74335295  0.94307352    -0.68300
O1040       O  0.18433578  0.74575577  0.94292843    -0.59600
O1041       O  0.23846340  0.73396059  0.96674931    -0.72100
O1042       O  0.23965081  0.75340794  0.91930458    -0.70900
Cu1043     Cu  0.23786237  0.68265281  0.93837614     1.04600
Cu1044     Cu  0.23921911  0.74612287  0.94319120     1.04300
C1045       C  0.23899820  0.72632699  0.90979055     0.95400
C1046       C  0.23746373  0.70102476  0.97174365     0.94600
C1047       C  0.16561854  0.71691081  0.94087155     0.86700
C1048       C  0.31157765  0.71380177  0.94059079     0.93000
O1049       O  0.43241583  0.55436742  0.54874894    -0.70800
O1050       O  0.41451803  0.94245510  0.54727489    -0.71700
O1051       O  0.42628791  0.99728545  0.57067550    -0.60400
O1052       O  0.40957911  0.99842187  0.52375399    -0.68800
O1053       O  0.97923697  0.00071687  0.52293411    -0.68300
O1054       O  0.97230688  0.00126289  0.57049605    -0.59600
O1055       O  0.96997227  0.94594582  0.54667089    -0.72100
O1056       O  0.99203135  0.55636874  0.54904414    -0.70900
Cu1057     Cu  0.41634055  0.99807094  0.54734814     1.04600
Cu1058     Cu  0.97777157  0.00074925  0.54677828     1.04300
C1059       C  0.46438538  0.56741829  0.54672884     0.95400
C1060       C  0.44275487  0.92234391  0.54548837     0.94600
C1061       C  0.45836367  0.99416897  0.57625672     0.86700
C1062       C  0.43626784  0.99571084  0.51418546     0.93000
O1063       O  0.42228805  0.69367077  0.54593412    -0.70800
O1064       O  0.43206212  0.80340580  0.54517489    -0.71700
O1065       O  0.43424192  0.74711992  0.52149996    -0.60400
O1066       O  0.42212327  0.75000622  0.56962372    -0.68800
O1067       O  0.97952415  0.75331335  0.57194463    -0.68300
O1068       O  0.98221290  0.75059934  0.52443054    -0.59600
O1069       O  0.98467197  0.80710434  0.54760722    -0.72100
O1070       O  0.97662742  0.69660992  0.54865786    -0.70900
Cu1071     Cu  0.42555504  0.74866853  0.54545589     1.04600
Cu1072     Cu  0.98277315  0.75175731  0.54818713     1.04300
C1073       C  0.45003390  0.67286805  0.54735104     0.95400
C1074       C  0.46342019  0.81803917  0.54653898     0.94600
C1075       C  0.46647424  0.74403662  0.51582874     0.86700
C1076       C  0.45060090  0.74751654  0.57833151     0.93000
O1077       O  0.27909099  0.93738763  0.54835172    -0.70800
O1078       O  0.28098572  0.55047941  0.54972246    -0.71700
O1079       O  0.26853940  0.99419698  0.52539622    -0.60400
O1080       O  0.28430870  0.99307358  0.57204464    -0.68800
O1081       O  0.34424419  0.99318747  0.56903601    -0.68300
O1082       O  0.32790058  0.99569288  0.52087858    -0.59600
O1083       O  0.34069431  0.54778811  0.54637951    -0.72100
O1084       O  0.33855606  0.93994988  0.54444199    -0.70900
Cu1085     Cu  0.27534708  0.99367768  0.54876473     1.04600
Cu1086     Cu  0.33908133  0.99449766  0.54479200     1.04300
C1087       C  0.30983142  0.92119594  0.54637515     0.95400
C1088       C  0.31180016  0.56661339  0.54812566     0.94600
C1089       C  0.29500463  0.99530492  0.51571522     0.86700
C1090       C  0.31609687  0.99262217  0.57800659     0.93000
O1091       O  0.31261637  0.74428678  0.57162805    -0.70800
O1092       O  0.33194388  0.74400623  0.52501833    -0.71700
O1093       O  0.32007748  0.80040377  0.54812665    -0.60400
O1094       O  0.32089118  0.68768820  0.54843206    -0.68800
O1095       O  0.26163403  0.68922386  0.54366983    -0.68300
O1096       O  0.26065509  0.79834748  0.54381413    -0.59600
O1097       O  0.27278186  0.74437365  0.51989959    -0.72100
O1098       O  0.25296715  0.74363412  0.56752511    -0.70900
Cu1099     Cu  0.32349931  0.74407490  0.54844036     1.04600
Cu1100     Cu  0.26003471  0.74383724  0.54353091     1.04300
C1101       C  0.28025305  0.74405846  0.57698310     0.95400
C1102       C  0.30589663  0.74457015  0.51505575     0.94600
C1103       C  0.28947288  0.81683956  0.54605289     0.86700
C1104       C  0.29058412  0.67096571  0.54623453     0.93000
C1105       C  0.28567509  0.85738069  0.54632402    -0.14300
C1106       C  0.31382072  0.88065719  0.54641098    -0.29400
H1107       H  0.25824488  0.86844313  0.54609384     0.14800
H1108       H  0.34126388  0.86964186  0.54617421     0.15300
C1109       C  0.31549392  0.60720325  0.54822323    -0.14300
C1110       C  0.28726912  0.63035996  0.54672478    -0.29400
H1111       H  0.34280498  0.61830437  0.54893918     0.14800
H1112       H  0.26010206  0.61910101  0.54554326     0.15300
C1113       C  0.43885779  0.88185126  0.54584508    -0.14300
C1114       C  0.46746319  0.85852716  0.54613971    -0.29400
H1115       H  0.90519385  0.88154304  0.54534360     0.14800
H1116       H  0.49489562  0.86941615  0.54623648     0.15300
C1117       C  0.47103805  0.60759721  0.54685525    -0.14300
C1118       C  0.44408074  0.63260521  0.54745244    -0.29400
H1119       H  0.99648389  0.62794605  0.54880876     0.14800
H1120       H  0.41607322  0.62327371  0.54770461     0.15300
C1121       C  0.37387653  0.68581000  0.93855604    -0.14300
C1122       C  0.35232145  0.71531072  0.94015885    -0.29400
H1123       H  0.36119674  0.65921485  0.93772259     0.14800
H1124       H  0.36496421  0.74183306  0.94139820     0.15300
C1125       C  0.12503640  0.72038949  0.94098460    -0.14300
C1126       C  0.10167539  0.69211742  0.94077620    -0.29400
H1127       H  0.11398118  0.74779961  0.94149451     0.14800
H1128       H  0.11250571  0.66460885  0.94058407     0.15300
C1129       C  0.37847926  0.05171825  0.93872269    -0.14300
C1130       C  0.35327720  0.02513021  0.93740084    -0.29400
H1131       H  0.36936582  0.07976331  0.93969540     0.14800
H1132       H  0.38853023  0.50894025  0.94131505     0.15300
C1133       C  0.10377159  0.03609755  0.93918872    -0.14300
C1134       C  0.12900141  0.06274507  0.93877364    -0.29400
H1135       H  0.11288919  0.00797822  0.93954087     0.14800
H1136       H  0.14610158  0.60177611  0.93864102     0.15300
C1137       C  0.37490996  0.70924213  0.18633470    -0.11100
C1138       C  0.34251746  0.70644019  0.18643507    -0.12700
C1139       C  0.09169908  0.71597797  0.19192755    -0.11100
C1140       C  0.12420321  0.71489101  0.19221608    -0.12700
C1141       C  0.40025488  0.00742875  0.18443365    -0.11100
C1142       C  0.36771726  0.00759376  0.18426855    -0.12700
C1143       C  0.11681283  0.02160258  0.19186292    -0.11100
C1144       C  0.14927661  0.01907375  0.19118775    -0.12700
C1145       C  0.23347807  0.71824251  0.00016255    -0.14300
C1146       C  0.23551584  0.69244691  0.98891982    -0.29400
H1147       H  0.23401093  0.74670485  0.99669688     0.14800
H1148       H  0.23526922  0.66396266  0.99236289     0.15300
C1149       C  0.22496041  0.68200420  0.09645425    -0.16300
C1150       C  0.22443544  0.68165757  0.11081600     0.07700
C1151       C  0.22458166  0.68454008  0.12763097     0.09600
C1152       C  0.22549486  0.68902321  0.14185754    -0.17200
C1153       C  0.25161357  0.06390420  0.99683673    -0.14300
C1154       C  0.24441290  0.03637840  0.98680576    -0.29400
H1155       H  0.26104379  0.51549963  0.99518497     0.14800
H1156       H  0.23963231  0.00935954  0.99158230     0.15300
C1157       C  0.25284482  0.02391731  0.13890359    -0.16300
C1158       C  0.25267865  0.02762445  0.12465245     0.07700
C1159       C  0.26507987  0.56981961  0.11067151     0.09600
C1160       C  0.25332090  0.03623985  0.09371251    -0.17200
C1161       C  0.36582142  0.70988711  0.04701536    -0.14300
C1162       C  0.34106652  0.68296211  0.04829490    -0.29400
H1163       H  0.35632139  0.73781112  0.04608151     0.14800
H1164       H  0.35050887  0.65496333  0.04875482     0.15300
C1165       C  0.09157619  0.68245354  0.04768880    -0.14300
C1166       C  0.11552076  0.71037692  0.04810194    -0.29400
H1167       H  0.10186122  0.65475304  0.04742083     0.14800
H1168       H  0.10522153  0.73805539  0.04873363     0.15300
C1169       C  0.98550496  0.71102656  0.98924194    -0.14300
C1170       C  0.97917822  0.68333476  0.99923644    -0.29400
H1171       H  0.48861763  0.72769788  0.99142367     0.14800
H1172       H  0.97498458  0.65614844  0.99454467     0.15300
C1173       C  0.98140471  0.70207343  0.09628096    -0.16300
C1174       C  0.98275884  0.70207354  0.11059493     0.07700
C1175       C  0.98416669  0.70168764  0.12738133     0.09600
C1176       C  0.98483961  0.70248179  0.14169852    -0.17200
C1177       C  0.39112329  0.06002968  0.04724177    -0.14300
C1178       C  0.36615737  0.03350634  0.04522653    -0.29400
H1179       H  0.39407805  0.59707244  0.04744108     0.14800
H1180       H  0.37543655  0.00572144  0.04348220     0.15300
C1181       C  0.11659854  0.03644618  0.04599472    -0.14300
C1182       C  0.14086390  0.06409169  0.04616916    -0.29400
H1183       H  0.13886628  0.51579222  0.05077248     0.14800
H1184       H  0.13091932  0.09191874  0.04660384     0.15300
C1185       C  0.49907152  0.05560378  0.99720149    -0.09500
C1186       C  0.49299619  0.02738682  0.98743608    -0.29400
H1187       H  0.52160421  0.59478038  0.99363864     0.14800
H1188       H  0.99830750  0.09205628  0.99259709     0.15300
C1189       C  0.51374951  0.02219813  0.13913928    -0.16300
C1190       C  0.51302725  0.02632268  0.12491901     0.07700
C1191       C  0.51704083  0.53942759  0.10941628     0.09600
C1192       C  0.50920084  0.03560103  0.09407625    -0.17200
C1193       C  0.29001082  0.74840725  0.48647261    -0.14300
C1194       C  0.31522363  0.74567971  0.49792164    -0.29400
H1195       H  0.26146997  0.74951365  0.48977691     0.14800
H1196       H  0.34380677  0.74455509  0.49468714     0.15300
C1197       C  0.28304550  0.88626389  0.43873968    -0.14300
C1198       C  0.31239379  0.86421946  0.43822325    -0.29400
H1199       H  0.25622579  0.87400608  0.43933541     0.14800
H1200       H  0.33927776  0.87642426  0.43812640     0.15300
C1201       C  0.28684605  0.61418338  0.43898010    -0.14300
C1202       C  0.31567703  0.63669855  0.43816026    -0.29400
H1203       H  0.25981010  0.62608368  0.43964848     0.14800
H1204       H  0.34283183  0.62497165  0.43796493     0.15300
C1205       C  0.31055792  0.99925469  0.48697813    -0.14300
C1206       C  0.28584909  0.99608896  0.49857963    -0.29400
H1207       H  0.34193531  0.49952373  0.49107893     0.14800
H1208       H  0.25733314  0.99418534  0.49546078     0.15300
C1209       C  0.44798019  0.74549741  0.48730702    -0.14300
C1210       C  0.47379827  0.74387377  0.49856531    -0.29400
H1211       H  0.41949114  0.74652751  0.49068779     0.14800
H1212       H  0.98294006  0.74923687  0.49394991     0.15300
C1213       C  0.44060948  0.88112969  0.43775263    -0.14300
C1214       C  0.47078741  0.86027594  0.43897339    -0.29400
H1215       H  0.41427332  0.86784875  0.43718907     0.14800
H1216       H  0.97545219  0.87886172  0.44188927     0.15300
C1217       C  0.45138181  0.61019468  0.43819472    -0.14300
C1218       C  0.48026747  0.63263926  0.43938514    -0.29400
H1219       H  0.42446539  0.62230500  0.43728471     0.14800
H1220       H  0.90329168  0.63126885  0.43830727     0.15300
C1221       C  0.45486669  0.99533764  0.48592548    -0.14300
C1222       C  0.42850344  0.99583357  0.49691858    -0.29400
H1223       H  0.48981552  0.49372078  0.49177301     0.14800
H1224       H  0.98107731  0.00019759  0.49208135     0.15300
C1225       C  0.24483514  0.73088528  0.23701093    -0.11100
C1226       C  0.25057280  0.73611651  0.25098562    -0.12700
C1227       C  0.30458047  0.75295919  0.34507799    -0.16300
C1228       C  0.31244127  0.75300527  0.35903854     0.07700
C1229       C  0.31977261  0.75247399  0.37560510     0.09600
C1230       C  0.32262812  0.75185929  0.38991781    -0.17200
C1231       C  0.26985730  0.88826492  0.29571810    -0.11100
C1232       C  0.27194839  0.85588349  0.29544549    -0.12700
C1233       C  0.27973621  0.63852206  0.30129509    -0.11100
C1234       C  0.27843558  0.60617571  0.30154273    -0.12700
C1235       C  0.26792467  0.00141214  0.24949829    -0.11100
C1236       C  0.26645397  0.00331003  0.23521288    -0.12700
C1237       C  0.26393326  0.99525696  0.34626657    -0.16300
C1238       C  0.26249887  0.99618914  0.36057348     0.07700
C1239       C  0.27005562  0.49583641  0.37782012     0.09600
C1240       C  0.26346799  0.99882514  0.39165655    -0.17200
C1241       C  0.48143676  0.73445014  0.25037172    -0.11100
C1242       C  0.48038762  0.73197239  0.23610025    -0.12700
C1243       C  0.49830876  0.75074175  0.34664880    -0.16300
C1244       C  0.49934603  0.75072398  0.36096881     0.07700
C1245       C  0.95849340  0.76000421  0.37829564     0.09600
C1246       C  0.49511938  0.74869548  0.39200604    -0.17200
C1247       C  0.47417222  0.88461270  0.29469037    -0.11100
C1248       C  0.47727989  0.85228154  0.29493042    -0.12700
C1249       C  0.49979051  0.63563598  0.30150650    -0.11100
C1250       C  0.49921785  0.60320783  0.30145012    -0.12700
C1251       C  0.49666264  0.99937798  0.24969742    -0.11100
C1252       C  0.50145914  0.00150243  0.23553503    -0.12700
C1253       C  0.44634956  0.98990581  0.34418859    -0.16300
C1254       C  0.43888010  0.99030506  0.35817316     0.07700
C1255       C  0.93759672  0.00031235  0.37558560     0.09600
C1256       C  0.42879738  0.99263918  0.38902547    -0.17200
C1257       C  0.24375174  0.73389738  0.84735973    -0.16300
C1258       C  0.24219491  0.73423855  0.86169686     0.07700
C1259       C  0.24067701  0.73390614  0.87852725     0.09600
C1260       C  0.23969753  0.73197136  0.89284961    -0.17200
C1261       C  0.23729831  0.04640061  0.88926801    -0.16300
C1262       C  0.26746529  0.53933970  0.87807414     0.07700
C1263       C  0.23210227  0.03964661  0.85824084     0.09600
C1264       C  0.23008533  0.03506335  0.84403042    -0.17200
C1265       C  0.35922295  0.72734335  0.80043561    -0.11100
C1266       C  0.39154184  0.72393992  0.79983690    -0.12700
C1267       C  0.14056985  0.73830870  0.79701354    -0.11100
C1268       C  0.10801721  0.73847192  0.79741767    -0.12700
C1269       C  0.99937382  0.71660520  0.84715528    -0.16300
C1270       C  0.99745245  0.70974807  0.86117723     0.07700
C1271       C  0.49310695  0.67674290  0.87628831     0.09600
C1272       C  0.99208375  0.69922146  0.89194025    -0.17200
C1273       C  0.40678294  0.53190502  0.79727371    -0.11100
C1274       C  0.37437194  0.52995377  0.79745380    -0.12700
C1275       C  0.12496895  0.50588163  0.80068826    -0.11100
C1276       C  0.15743990  0.50494513  0.80044720    -0.12700
C1277       C  0.49007282  0.04271723  0.89047008    -0.16300
C1278       C  0.51637459  0.55206696  0.87676146     0.07700
C1279       C  0.98681308  0.03384318  0.86057879     0.09600
C1280       C  0.48536589  0.03552574  0.84527784    -0.17200
C1281       C  0.26387757  0.73543516  0.73628665    -0.11100
C1282       C  0.25978704  0.73424124  0.75052100    -0.12700
C1283       C  0.27753788  0.74497015  0.63947573    -0.16300
C1284       C  0.27658388  0.74512999  0.62512927     0.07700
C1285       C  0.27497342  0.74480863  0.60830219     0.09600
C1286       C  0.27526007  0.74440135  0.59395279    -0.17200
C1287       C  0.26157415  0.88197381  0.68901828    -0.11100
C1288       C  0.26114760  0.84949547  0.68932472    -0.12700
C1289       C  0.28922158  0.60026893  0.68628957    -0.11100
C1290       C  0.28624571  0.63259396  0.68622385    -0.12700
C1291       C  0.23999612  0.99891070  0.73361727    -0.11100
C1292       C  0.23532451  0.00263087  0.74776650    -0.12700
C1293       C  0.31898663  0.99117639  0.59510380    -0.16300
C1294       C  0.31480667  0.98966697  0.60935272     0.07700
C1295       C  0.31283248  0.48666762  0.62674313     0.09600
C1296       C  0.29627801  0.98720678  0.63953975    -0.17200
C1297       C  0.98953932  0.76256710  0.73767033    -0.11100
C1298       C  0.99290629  0.75941080  0.75188714    -0.12700
C1299       C  0.46264118  0.75404020  0.64049929    -0.16300
C1300       C  0.45672032  0.75316779  0.62636705     0.07700
C1301       C  0.45077879  0.75132549  0.60971758     0.09600
C1302       C  0.44825388  0.74952082  0.59541438    -0.17200
C1303       C  0.47201090  0.89196044  0.69019282    -0.11100
C1304       C  0.47354652  0.85944925  0.69070882    -0.12700
C1305       C  0.48941199  0.64128123  0.68531155    -0.11100
C1306       C  0.49238164  0.60889420  0.68507535    -0.12700
C1307       C  0.51490619  0.51416782  0.74975427    -0.11100
C1308       C  0.51248245  0.50981178  0.73557931    -0.12700
C1309       C  0.46356221  0.99509033  0.63860521    -0.16300
C1310       C  0.46399807  0.99417616  0.62429204     0.07700
C1311       C  0.47674021  0.49226663  0.60867950     0.09600
C1312       C  0.46310709  0.99369126  0.59319427    -0.17200
O1313       O  0.95926021  0.46198999  0.69271243    -0.70800
O1314       O  0.92871096  0.06860663  0.68833062    -0.71700
O1315       O  0.91903185  0.01306229  0.66531559    -0.60400
O1316       O  0.93102883  0.01613551  0.71279071    -0.68800
O1317       O  0.53591544  0.50522657  0.70968901    -0.68300
O1318       O  0.52236652  0.49733176  0.66233190    -0.59600
O1319       O  0.49211949  0.05676678  0.68512169    -0.72100
O1320       O  0.53222047  0.44693595  0.68752965    -0.70900
Cu1321     Cu  0.92285601  0.01470779  0.68916870     1.04600
Cu1322     Cu  0.53127503  0.50120811  0.68589034     1.04300
C1323       C  0.50298114  0.42896706  0.68958379     0.95400
C1324       C  0.46086868  0.07188117  0.68515286     0.94600
C1325       C  0.97972976  0.51302670  0.65915687     0.86700
C1326       C  0.46787215  0.00566439  0.71815419     0.93000
O1327       O  0.94143932  0.21159800  0.69129210    -0.70800
O1328       O  0.94980657  0.31925600  0.69176276    -0.71700
O1329       O  0.93525926  0.26641862  0.66802754    -0.60400
O1330       O  0.95648723  0.26422679  0.71501180    -0.68800
O1331       O  0.52023452  0.23952846  0.70828989    -0.68300
O1332       O  0.49823844  0.25018425  0.66153969    -0.59600
O1333       O  0.52006788  0.29807275  0.68624809    -0.72100
O1334       O  0.49901302  0.19231658  0.68349034    -0.70900
Cu1335     Cu  0.94365647  0.26557495  0.69171211     1.04600
Cu1336     Cu  0.51145595  0.24473347  0.68469740     1.04300
C1337       C  0.96961036  0.19241653  0.68852748     0.95400
C1338       C  0.98073032  0.33382701  0.68943749     0.94600
C1339       C  0.96163077  0.26404217  0.65822579     0.86700
C1340       C  0.49439397  0.24267941  0.71832327     0.93000
O1341       O  0.81069493  0.50230303  0.71463383    -0.70800
O1342       O  0.82919341  0.49767740  0.66763908    -0.71700
O1343       O  0.78154962  0.05233508  0.68803044    -0.60400
O1344       O  0.82029275  0.44537679  0.69212898    -0.68800
O1345       O  0.76058665  0.44492462  0.68777114    -0.68300
O1346       O  0.72179776  0.05365141  0.68377517    -0.59600
O1347       O  0.76969151  0.49646551  0.66308474    -0.72100
O1348       O  0.75105139  0.50134548  0.71043060    -0.70900
Cu1349     Cu  0.82183702  0.49981462  0.69128632     1.04600
Cu1350     Cu  0.75798895  0.49862582  0.68658135     1.04300
C1351       C  0.77816935  0.50317482  0.71990990     0.95400
C1352       C  0.80246398  0.49665366  0.65798425     0.94600
C1353       C  0.75201107  0.06983956  0.68575100     0.86700
C1354       C  0.79046304  0.42827755  0.69018439     0.93000
O1355       O  0.80087171  0.24203821  0.71137021    -0.70800
O1356       O  0.79682437  0.24704852  0.66354521    -0.71700
O1357       O  0.80762353  0.29791753  0.68843406    -0.60400
O1358       O  0.79128606  0.19151902  0.68650737    -0.68800
O1359       O  0.73136321  0.20000190  0.68755714    -0.68300
O1360       O  0.74783327  0.30719268  0.68950644    -0.59600
O1361       O  0.73708786  0.25597884  0.66475905    -0.72100
O1362       O  0.74109886  0.25099035  0.71224766    -0.70900
Cu1363     Cu  0.80127600  0.24436840  0.68742136     1.04600
Cu1364     Cu  0.73722960  0.25394323  0.68855556     1.04300
C1365       C  0.77137841  0.24543602  0.71925107     0.95400
C1366       C  0.76613999  0.25186448  0.65669417     0.94600
C1367       C  0.78036199  0.31920564  0.68934314     0.86700
C1368       C  0.75902051  0.17909104  0.68670834     0.93000
O1369       O  0.98101708  0.05890912  0.82109195    -0.70800
O1370       O  0.97398268  0.05227603  0.77353620    -0.71700
O1371       O  0.92382038  0.05204584  0.79879206    -0.60400
O1372       O  0.52882378  0.05983049  0.79447395    -0.68800
O1373       O  0.56940173  0.49890020  0.79986658    -0.68300
O1374       O  0.95931154  0.49959670  0.80132434    -0.59600
O1375       O  0.01206063  0.48838420  0.77751244    -0.72100
O1376       O  0.01300376  0.49552161  0.82533981    -0.70900
Cu1377     Cu  0.97746898  0.05776782  0.79724831     1.04600
Cu1378     Cu  0.01229863  0.48963650  0.80149399     1.04300
C1379       C  0.98394306  0.02980118  0.82927195     0.95400
C1380       C  0.97457129  0.02109481  0.76687192     0.94600
C1381       C  0.90906623  0.02081034  0.79982577     0.86700
C1382       C  0.54942385  0.03199491  0.79544953     0.93000
O1383       O  0.95768767  0.26517512  0.80170481    -0.70800
O1384       O  0.56403575  0.24489151  0.79869634    -0.71700
O1385       O  0.50786940  0.25078890  0.77567745    -0.60400
O1386       O  0.51200919  0.22986427  0.82268998    -0.68800
O1387       O  0.51634943  0.17069673  0.81771639    -0.68300
O1388       O  0.51223655  0.19163128  0.77067808    -0.59600
O1389       O  0.56862452  0.18564861  0.79370110    -0.72100
O1390       O  0.96463575  0.20585015  0.79738906    -0.70900
Cu1391     Cu  0.50996454  0.24246721  0.79936108     1.04600
Cu1392     Cu  0.51462941  0.17907484  0.79400948     1.04300
C1393       C  0.94443093  0.23346547  0.79990629     0.95400
C1394       C  0.58319770  0.21662774  0.79606138     0.94600
C1395       C  0.50901657  0.22442947  0.76582584     0.86700
C1396       C  0.51447291  0.19702136  0.82757007     0.93000
O1397       O  0.82219026  0.50535641  0.80121062    -0.70800
O1398       O  0.71434156  0.50010985  0.80087192    -0.71700
O1399       O  0.76913051  0.49268157  0.77748093    -0.60400
O1400       O  0.76759419  0.51251632  0.82449979    -0.68800
O1401       O  0.73093777  0.06482906  0.81864705    -0.68300
O1402       O  0.73293416  0.04874506  0.77130754    -0.59600
O1403       O  0.67804484  0.06192535  0.79411192    -0.72100
O1404       O  0.78552076  0.05210433  0.79589553    -0.70900
Cu1405     Cu  0.76839605  0.50055160  0.80117713     1.04600
Cu1406     Cu  0.73201838  0.05900578  0.79484241     1.04300
C1407       C  0.79976372  0.02094586  0.79823604     0.95400
C1408       C  0.65865563  0.03351195  0.79567375     0.94600
C1409       C  0.73069175  0.01645034  0.76579157     0.86700
C1410       C  0.76619978  0.54524097  0.82955018     0.93000
O1411       O  0.76782963  0.20187853  0.77311652    -0.70800
O1412       O  0.76253114  0.18800847  0.82041040    -0.71700
O1413       O  0.71095770  0.19364787  0.79551762    -0.60400
O1414       O  0.81904001  0.19582409  0.79798256    -0.68800
O1415       O  0.81721800  0.25587708  0.80121480    -0.68300
O1416       O  0.70886707  0.25367685  0.79874292    -0.59600
O1417       O  0.76062523  0.24799708  0.82357568    -0.72100
O1418       O  0.76592127  0.26183899  0.77635863    -0.70900
Cu1419     Cu  0.76509651  0.19272220  0.79663787     1.04600
Cu1420     Cu  0.76304879  0.25698356  0.80009059     1.04300
C1421       C  0.76799350  0.23401813  0.76735488     0.95400
C1422       C  0.76106533  0.21593054  0.82938732     0.94600
C1423       C  0.69301125  0.22319908  0.79677627     0.86700
C1424       C  0.83498988  0.22619915  0.79995511     0.93000
O1425       O  0.96127215  0.45188801  0.29683674    -0.70800
O1426       O  0.92944911  0.05817967  0.29584299    -0.71700
O1427       O  0.96938716  0.51110234  0.27546498    -0.60400
O1428       O  0.95499824  0.50094050  0.32260066    -0.68800
O1429       O  0.51220544  0.48994459  0.32454437    -0.68300
O1430       O  0.53214727  0.49597301  0.27726308    -0.59600
O1431       O  0.50177602  0.04709058  0.30118224    -0.72100
O1432       O  0.52033742  0.43915394  0.29944186    -0.70900
Cu1433     Cu  0.96009747  0.50574940  0.29891773     1.04600
Cu1434     Cu  0.52473790  0.49260770  0.30109907     1.04300
C1435       C  0.99090663  0.43404485  0.29796949     0.95400
C1436       C  0.95927740  0.07439793  0.29874549     0.94600
C1437       C  0.00155333  0.51249460  0.26978750     0.86700
C1438       C  0.98263106  0.49916675  0.33175192     0.93000
O1439       O  0.95050808  0.31146062  0.29642276    -0.70800
O1440       O  0.93717099  0.20401677  0.29843368    -0.71700
O1441       O  0.93932219  0.26048387  0.32123399    -0.60400
O1442       O  0.94826965  0.25464251  0.27363793    -0.68800
O1443       O  0.51401722  0.23966192  0.27471749    -0.68300
O1444       O  0.51164089  0.24440865  0.32232239    -0.59600
O1445       O  0.50914871  0.18819530  0.29950455    -0.72100
O1446       O  0.51589587  0.29612377  0.29747281    -0.70900
Cu1447     Cu  0.94169367  0.25797978  0.29735468     1.04600
Cu1448     Cu  0.51485169  0.24198792  0.29853860     1.04300
C1449       C  0.98249880  0.32462010  0.29728151     0.95400
C1450       C  0.96519408  0.18379594  0.29984887     0.94600
C1451       C  0.96775668  0.25752791  0.32986028     0.86700
C1452       C  0.97953544  0.24980624  0.26737216     0.93000
O1453       O  0.73620742  0.44784257  0.29776216    -0.70800
O1454       O  0.74929142  0.05325214  0.29875817    -0.71700
O1455       O  0.73377484  0.50459661  0.27502534    -0.60400
O1456       O  0.72670627  0.49897580  0.32259518    -0.68800
O1457       O  0.78672694  0.50462894  0.32440423    -0.68300
O1458       O  0.79380214  0.51031681  0.27676627    -0.59600
O1459       O  0.80948059  0.05913971  0.29765158    -0.72100
O1460       O  0.79629132  0.45379138  0.29954867    -0.70900
Cu1461     Cu  0.72816850  0.50158337  0.29873802     1.04600
Cu1462     Cu  0.79248678  0.50768039  0.30065808     1.04300
C1463       C  0.76804432  0.43402177  0.29833778     0.95400
C1464       C  0.77776925  0.07294782  0.29866123     0.94600
C1465       C  0.76481217  0.50834054  0.26845144     0.86700
C1466       C  0.75562188  0.50094236  0.33094570     0.93000
O1467       O  0.80473429  0.30734495  0.29552540    -0.70800
O1468       O  0.80379135  0.19886066  0.29663820    -0.71700
O1469       O  0.79342490  0.25173179  0.27270349    -0.60400
O1470       O  0.81574792  0.25391356  0.31943576    -0.68800
O1471       O  0.75661139  0.25458822  0.32480816    -0.68300
O1472       O  0.73416458  0.25236118  0.27781101    -0.59600
O1473       O  0.74448671  0.19973898  0.30190455    -0.72100
O1474       O  0.74544029  0.30768107  0.30078325    -0.70900
Cu1475     Cu  0.80651537  0.25299571  0.29588863     1.04600
Cu1476     Cu  0.74307744  0.25370983  0.30151957     1.04300
C1477       C  0.77503011  0.32440998  0.29798107     0.95400
C1478       C  0.77396747  0.18244305  0.29942839     0.94600
C1479       C  0.76046581  0.25127992  0.26791719     0.86700
C1480       C  0.78974927  0.25417466  0.32944889     0.93000
O1481       O  0.48487807  0.49506576  0.46163206    -0.70800
O1482       O  0.47862543  0.49443162  0.41456430    -0.71700
O1483       O  0.46505281  0.05214674  0.43597592    -0.60400
O1484       O  0.47738261  0.43859512  0.43838958    -0.68800
O1485       O  0.91010133  0.45330751  0.43991260    -0.68300
O1486       O  0.90970729  0.06390739  0.43758994    -0.59600
O1487       O  0.92291586  0.50721865  0.41612285    -0.72100
O1488       O  0.90913040  0.50905905  0.46368695    -0.70900
Cu1489     Cu  0.48305163  0.49476399  0.43808803     1.04600
Cu1490     Cu  0.91388365  0.50843718  0.43977532     1.04300
C1491       C  0.93687870  0.50573303  0.47272234     0.95400
C1492       C  0.95487652  0.50329414  0.41041090     0.94600
C1493       C  0.94200297  0.07697908  0.43836220     0.86700
C1494       C  0.93770426  0.43226967  0.44139352     0.93000
O1495       O  0.49798687  0.24432087  0.41821485    -0.70800
O1496       O  0.47913898  0.24332345  0.46545008    -0.71700
O1497       O  0.48721830  0.18906902  0.44140967    -0.60400
O1498       O  0.49205173  0.29847825  0.44220536    -0.68800
O1499       O  0.91992569  0.31443261  0.43975499    -0.68300
O1500       O  0.90377508  0.20520794  0.43824244    -0.59600
O1501       O  0.90627578  0.25914390  0.46279253    -0.72100
O1502       O  0.91768494  0.26068987  0.41522342    -0.70900
Cu1503     Cu  0.49102832  0.24368035  0.44199883     1.04600
Cu1504     Cu  0.90989520  0.26012070  0.43891241     1.04300
C1505       C  0.94913264  0.25609370  0.40911577     0.95400
C1506       C  0.93421254  0.25454943  0.47160076     0.94600
C1507       C  0.93041064  0.18287374  0.43927036     0.86700
C1508       C  0.95219105  0.32694935  0.44131895     0.93000
O1509       O  0.79708459  0.49672982  0.41443415    -0.70800
O1510       O  0.82349019  0.49770010  0.46053427    -0.71700
O1511       O  0.80933074  0.44103302  0.43774817    -0.60400
O1512       O  0.80611242  0.05339752  0.43892053    -0.68800
O1513       O  0.74590059  0.05229498  0.43794914    -0.68300
O1514       O  0.75073499  0.44246120  0.44383435    -0.59600
O1515       O  0.76506684  0.49782493  0.46700996    -0.72100
O1516       O  0.73821143  0.49671270  0.42028073    -0.70900
Cu1517     Cu  0.81176337  0.49722845  0.43729947     1.04600
Cu1518     Cu  0.74911701  0.49726537  0.44386908     1.04300
C1519       C  0.76388531  0.49659012  0.41006353     0.95400
C1520       C  0.79870451  0.49790849  0.47108551     0.94600
C1521       C  0.77946506  0.42425142  0.44073168     0.86700
C1522       C  0.77550032  0.07035920  0.43834076     0.93000
O1523       O  0.83680393  0.24643864  0.41724431    -0.70800
O1524       O  0.82066548  0.24724180  0.46504485    -0.71700
O1525       O  0.82890616  0.19188078  0.44134036    -0.60400
O1526       O  0.83107058  0.30149755  0.44101587    -0.68800
O1527       O  0.77134795  0.30384986  0.43760085    -0.68300
O1528       O  0.76941349  0.19143913  0.43729098    -0.59600
O1529       O  0.76116292  0.24760174  0.46067318    -0.72100
O1530       O  0.77692140  0.24798948  0.41393801    -0.70900
Cu1531     Cu  0.83139851  0.24667702  0.44130298     1.04600
Cu1532     Cu  0.76764288  0.24773416  0.43724153     1.04300
C1533       C  0.80889515  0.24745776  0.40815986     0.95400
C1534       C  0.78790656  0.24763508  0.47027091     0.94600
C1535       C  0.79949611  0.17413482  0.43933547     0.86700
C1536       C  0.80200731  0.32016213  0.43931440     0.93000
O1537       O  0.56815771  0.51947245  0.04540153    -0.70800
O1538       O  0.95760407  0.53311998  0.05043010    -0.71700
O1539       O  0.01248482  0.52303441  0.02685196    -0.60400
O1540       O  0.01313310  0.53154458  0.07439785    -0.68800
O1541       O  0.00977864  0.08412650  0.06966000    -0.68300
O1542       O  0.00432421  0.07345089  0.02192318    -0.59600
O1543       O  0.95216625  0.08494449  0.04652000    -0.72100
O1544       O  0.56214769  0.07036655  0.04595293    -0.70900
Cu1545     Cu  0.01257041  0.52526721  0.05066971     1.04600
Cu1546     Cu  0.00728224  0.08108927  0.04570448     1.04300
C1547       C  0.58900086  0.54718965  0.04670418     0.95400
C1548       C  0.94377260  0.56503668  0.04936571     0.94600
C1549       C  0.01561148  0.55135552  0.01819064     0.86700
C1550       C  0.01701785  0.56270153  0.08084853     0.93000
O1551       O  0.55919566  0.16115321  0.04805610    -0.70800
O1552       O  0.94817952  0.16329398  0.04778262    -0.71700
O1553       O  0.00360021  0.15792435  0.02401823    -0.60400
O1554       O  0.50321889  0.16829629  0.07146552    -0.68800
O1555       O  0.50294901  0.22814043  0.06790453    -0.68300
O1556       O  0.50429124  0.21330372  0.02041625    -0.59600
O1557       O  0.94754481  0.22327976  0.04549427    -0.72100
O1558       O  0.55947716  0.22083826  0.04446301    -0.70900
Cu1559     Cu  0.50390690  0.15898617  0.04792891     1.04600
Cu1560     Cu  0.50352793  0.22279266  0.04408361     1.04300
C1561       C  0.57689205  0.19082841  0.04632456     0.95400
C1562       C  0.93029581  0.19308886  0.04672445     0.94600
C1563       C  0.50498558  0.18094790  0.01483147     0.86700
C1564       C  0.50279530  0.20052416  0.07709644     0.93000
O1565       O  0.75750977  0.08388420  0.02265869    -0.70800
O1566       O  0.75551484  0.07653538  0.07000462    -0.71700
O1567       O  0.81205246  0.07407571  0.04674482    -0.60400
O1568       O  0.70138688  0.08520294  0.04600888    -0.68800
O1569       O  0.70792291  0.53228827  0.04584541    -0.68300
O1570       O  0.81810992  0.52110366  0.04660502    -0.59600
O1571       O  0.76167360  0.52097419  0.06988802    -0.72100
O1572       O  0.76447699  0.53257897  0.02242067    -0.70900
Cu1573     Cu  0.75687174  0.08198065  0.04640131     1.04600
Cu1574     Cu  0.76286203  0.52467465  0.04607717     1.04300
C1575       C  0.76814153  0.56425181  0.01634594     0.95400
C1576       C  0.76453574  0.54903079  0.07870509     0.94600
C1577       C  0.83881062  0.54885212  0.04811071     0.86700
C1578       C  0.69384866  0.56401891  0.04725188     0.93000
O1579       O  0.69773772  0.18759609  0.04589929    -0.70800
O1580       O  0.80959558  0.18851778  0.04706359    -0.71700
O1581       O  0.75202672  0.18604436  0.07043815    -0.60400
O1582       O  0.75522680  0.18997203  0.02260004    -0.68800
O1583       O  0.75480754  0.25026388  0.02362768    -0.68300
O1584       O  0.75112774  0.24640538  0.07123029    -0.59600
O1585       O  0.80832262  0.24871204  0.04806782    -0.72100
O1586       O  0.69771397  0.24782811  0.04662564    -0.70900
Cu1587     Cu  0.75368154  0.18588586  0.04648003     1.04600
Cu1588     Cu  0.75297710  0.25029820  0.04743507     1.04300
C1589       C  0.68017628  0.21781089  0.04609273     0.95400
C1590       C  0.82652112  0.21899185  0.04757964     0.94600
C1591       C  0.75070921  0.21570749  0.07830398     0.86700
C1592       C  0.75578203  0.22085221  0.01559960     0.93000
O1593       O  0.96577318  0.50872848  0.18770379    -0.70800
O1594       O  0.56807029  0.48593745  0.18751194    -0.71700
O1595       O  0.01703043  0.50508017  0.21264687    -0.60400
O1596       O  0.02150111  0.52364779  0.16564165    -0.68800
O1597       O  0.01726776  0.07165066  0.16688925    -0.68300
O1598       O  0.00310662  0.05447005  0.21376468    -0.59600
O1599       O  0.56215364  0.04336118  0.19002139    -0.72100
O1600       O  0.95733385  0.06929251  0.18767810    -0.70900
Cu1601     Cu  0.01963760  0.51241660  0.18899672     1.04600
Cu1602     Cu  0.01085847  0.06518054  0.19049599     1.04300
C1603       C  0.94564292  0.53671525  0.18937205     0.95400
C1604       C  0.58605124  0.51525702  0.18918403     0.94600
C1605       C  0.01255759  0.53166433  0.22218051     0.86700
C1606       C  0.01848761  0.55601989  0.16029492     0.93000
O1607       O  0.93457494  0.20711196  0.18799470    -0.70800
O1608       O  0.54424328  0.19248211  0.18989949    -0.71700
O1609       O  0.48752831  0.20139582  0.21222778    -0.60400
O1610       O  0.49313325  0.19217655  0.16470914    -0.68800
O1611       O  0.99961693  0.25158717  0.16296003    -0.68300
O1612       O  0.99361799  0.26521790  0.21035041    -0.59600
O1613       O  0.54859582  0.25265587  0.18776789    -0.72100
O1614       O  0.94327262  0.26660833  0.18498523    -0.70900
Cu1615     Cu  0.49018122  0.19463984  0.18855416     1.04600
Cu1616     Cu  0.99699489  0.26051440  0.18654976     1.04300
C1617       C  0.92225231  0.23924584  0.18609143     0.95400
C1618       C  0.56322240  0.22138956  0.18931711     0.94600
C1619       C  0.98805144  0.23769398  0.21926377     0.86700
C1620       C  0.49619820  0.22074302  0.15619627     0.93000
O1621       O  0.80936619  0.06759820  0.18614006    -0.70800
O1622       O  0.70285677  0.05363655  0.19047299    -0.71700
O1623       O  0.76243261  0.05410916  0.21195619    -0.60400
O1624       O  0.75040874  0.06633968  0.16468375    -0.68800
O1625       O  0.76670711  0.49771225  0.16392302    -0.68300
O1626       O  0.76951207  0.48756578  0.21151719    -0.59600
O1627       O  0.71437062  0.48842881  0.18812440    -0.72100
O1628       O  0.82196054  0.49636887  0.18726354    -0.70900
Cu1629     Cu  0.75593240  0.06256231  0.18844182     1.04600
Cu1630     Cu  0.76831078  0.49037595  0.18761991     1.04300
C1631       C  0.83656835  0.52763366  0.18834397     0.95400
C1632       C  0.69539075  0.51726914  0.18947014     0.94600
C1633       C  0.76761346  0.51606895  0.22013875     0.86700
C1634       C  0.76408230  0.52936231  0.15775378     0.93000
O1635       O  0.69301362  0.19601762  0.19148603    -0.70800
O1636       O  0.80014580  0.20934283  0.18902151    -0.71700
O1637       O  0.74885622  0.20922994  0.21404084    -0.60400
O1638       O  0.74480143  0.19630742  0.16655990    -0.68800
O1639       O  0.73738634  0.25593684  0.16364875    -0.68300
O1640       O  0.74149592  0.26885435  0.21112672    -0.59600
O1641       O  0.79287974  0.26909269  0.18607793    -0.72100
O1642       O  0.68569330  0.25575847  0.18856947    -0.70900
Cu1643     Cu  0.74692798  0.20061188  0.19040251     1.04600
Cu1644     Cu  0.73900053  0.26451617  0.18726910     1.04300
C1645       C  0.67260751  0.22394489  0.19031270     0.95400
C1646       C  0.81322234  0.24108670  0.18705440     0.94600
C1647       C  0.74612122  0.24106185  0.22000895     0.86700
C1648       C  0.74091895  0.22419767  0.15767310     0.93000
O1649       O  0.99580932  0.08670571  0.96181821    -0.70800
O1650       O  0.99307467  0.07421004  0.91453503    -0.71700
O1651       O  0.93891316  0.08555675  0.93839392    -0.60400
O1652       O  0.54979816  0.06015519  0.93929980    -0.68800
O1653       O  0.56919176  0.51104886  0.93847136    -0.68300
O1654       O  0.95977332  0.53425973  0.94320773    -0.59600
O1655       O  0.01506188  0.52215555  0.92000964    -0.72100
O1656       O  0.01482546  0.53704439  0.96730260    -0.70900
Cu1657     Cu  0.99454909  0.08230250  0.93808662     1.04600
Cu1658     Cu  0.01475356  0.52757576  0.94375864     1.04300
C1659       C  0.01800560  0.56905341  0.97307021     0.95400
C1660       C  0.01779067  0.54961131  0.91082568     0.94600
C1661       C  0.94521791  0.56566078  0.94139539     0.86700
C1662       C  0.59027187  0.53873287  0.93928353     0.93000
O1663       O  0.95996118  0.24113367  0.93873892    -0.70800
O1664       O  0.56825923  0.21614626  0.93727458    -0.71700
O1665       O  0.51273075  0.21263290  0.91322174    -0.60400
O1666       O  0.51155394  0.22315228  0.96049816    -0.68800
O1667       O  0.51015546  0.16322600  0.96345853    -0.68300
O1668       O  0.51204427  0.15247951  0.91539953    -0.59600
O1669       O  0.56608512  0.15620925  0.93984989    -0.72100
O1670       O  0.95402159  0.18118612  0.93920176    -0.70900
Cu1671     Cu  0.51220714  0.21950815  0.93683161     1.04600
Cu1672     Cu  0.51113934  0.15536696  0.93951983     1.04300
C1673       C  0.93954941  0.21290248  0.93900425     0.95400
C1674       C  0.58466315  0.18542045  0.93870129     0.94600
C1675       C  0.51261973  0.18121471  0.90682829     0.86700
C1676       C  0.51036483  0.19526207  0.96946781     0.93000
O1677       O  0.71004375  0.52507715  0.93890376    -0.70800
O1678       O  0.82085625  0.51753548  0.93935577    -0.71700
O1679       O  0.76479757  0.51688026  0.96278881    -0.60400
O1680       O  0.76610761  0.52532536  0.91533007    -0.68800
O1681       O  0.74213806  0.07545724  0.91541152    -0.68300
O1682       O  0.74498505  0.06718033  0.96316754    -0.59600
O1683       O  0.79879650  0.06843847  0.93886689    -0.72100
O1684       O  0.68831791  0.07488005  0.93989426    -0.70900
Cu1685     Cu  0.76535842  0.51915900  0.93901239     1.04600
Cu1686     Cu  0.74364011  0.07357978  0.93938690     1.04300
C1687       C  0.69515113  0.55652402  0.93997251     0.95400
C1688       C  0.84070004  0.54604629  0.94041962     0.94600
C1689       C  0.76710874  0.54532160  0.97139720     0.86700
C1690       C  0.76840033  0.55655709  0.90880408     0.93000
O1691       O  0.75973229  0.17221842  0.91547529    -0.70800
O1692       O  0.75864713  0.16727624  0.96305118    -0.71700
O1693       O  0.70390362  0.17453170  0.93905723    -0.60400
O1694       O  0.81460917  0.16554738  0.93939547    -0.68800
O1695       O  0.81989862  0.22550618  0.94059013    -0.68300
O1696       O  0.70921340  0.23449615  0.94015802    -0.59600
O1697       O  0.76356461  0.22732870  0.96434529    -0.72100
O1698       O  0.76504247  0.23233471  0.91661647    -0.70900
Cu1699     Cu  0.75911294  0.16783167  0.93921861     1.04600
Cu1700     Cu  0.76463041  0.23199728  0.94048960     1.04300
C1701       C  0.76238868  0.20301380  0.90859746     0.95400
C1702       C  0.76056241  0.19643798  0.97121486     0.94600
C1703       C  0.68910944  0.20613895  0.93947307     0.86700
C1704       C  0.83471185  0.19395805  0.93991996     0.93000
O1705       O  0.92178824  0.06347051  0.54522487    -0.70800
O1706       O  0.92071977  0.45336548  0.54887850    -0.71700
O1707       O  0.92640343  0.50882709  0.57278350    -0.60400
O1708       O  0.92745892  0.50761507  0.52464497    -0.68800
O1709       O  0.47468950  0.49253345  0.52087265    -0.68300
O1710       O  0.49312884  0.48959341  0.56809849    -0.59600
O1711       O  0.47727192  0.43605856  0.54444161    -0.72100
O1712       O  0.48239993  0.04705500  0.54333494    -0.70900
Cu1713     Cu  0.92457858  0.50842127  0.54871063     1.04600
Cu1714     Cu  0.48614572  0.49075342  0.54434212     1.04300
C1715       C  0.95379688  0.07701918  0.54620275     0.95400
C1716       C  0.94837671  0.43216886  0.54901930     0.94600
C1717       C  0.95641695  0.50557980  0.58034221     0.86700
C1718       C  0.95802189  0.50387056  0.51755201     0.93000
O1719       O  0.91276668  0.20449463  0.54688069    -0.70800
O1720       O  0.92934100  0.31411562  0.54730147    -0.71700
O1721       O  0.92413618  0.25893788  0.52313296    -0.60400
O1722       O  0.91805909  0.25957522  0.57102092    -0.68800
O1723       O  0.47544452  0.24264652  0.57209098    -0.68300
O1724       O  0.48629543  0.23939491  0.52502527    -0.59600
O1725       O  0.48757121  0.29595328  0.54809314    -0.72100
O1726       O  0.47267650  0.18587722  0.54868865    -0.70900
Cu1727     Cu  0.91898407  0.25958704  0.54703520     1.04600
Cu1728     Cu  0.48246292  0.24065106  0.54858596     1.04300
C1729       C  0.93978423  0.18244915  0.54738810     0.95400
C1730       C  0.96179247  0.32658386  0.54823672     0.94600
C1731       C  0.95500671  0.25393440  0.51647158     0.86700
C1732       C  0.94705179  0.25512640  0.57917338     0.93000
O1733       O  0.77827142  0.44280312  0.54988677    -0.70800
O1734       O  0.76955065  0.05492136  0.54535294    -0.71700
O1735       O  0.76889182  0.49928822  0.52681550    -0.60400
O1736       O  0.78665853  0.49849862  0.57343308    -0.68800
O1737       O  0.84639362  0.49753737  0.56971383    -0.68300
O1738       O  0.82811131  0.49827569  0.52186007    -0.59600
O1739       O  0.82971940  0.05398121  0.54677459    -0.72100
O1740       O  0.83775773  0.44302098  0.54574463    -0.70900
Cu1741     Cu  0.77643873  0.49894690  0.55019570     1.04600
Cu1742     Cu  0.84000019  0.49791544  0.54563493     1.04300
C1743       C  0.80825878  0.42539543  0.54780803     0.95400
C1744       C  0.80002194  0.07196308  0.54618264     0.94600
C1745       C  0.79504333  0.49882640  0.51693928     0.86700
C1746       C  0.81884793  0.49782428  0.57900245     0.93000
O1747       O  0.80030288  0.24800905  0.57236825    -0.70800
O1748       O  0.82171968  0.24835472  0.52590268    -0.71700
O1749       O  0.81171023  0.30430624  0.54932056    -0.60400
O1750       O  0.80801211  0.19212480  0.54871386    -0.68800
O1751       O  0.74887445  0.19533651  0.54381704    -0.68300
O1752       O  0.75249241  0.30509382  0.54441775    -0.59600
O1753       O  0.76266294  0.25031747  0.52055779    -0.72100
O1754       O  0.74087259  0.25010046  0.56771353    -0.70900
Cu1755     Cu  0.81250201  0.24810819  0.54926168     1.04600
Cu1756     Cu  0.74922391  0.25029185  0.54393271     1.04300
C1757       C  0.76765251  0.24918323  0.57739971     0.95400
C1758       C  0.79582209  0.24922485  0.51586304     0.94600
C1759       C  0.78209063  0.32220838  0.54701476     0.86700
C1760       C  0.77746541  0.17623647  0.54611167     0.93000
C1761       C  0.78060654  0.36294058  0.54741215    -0.14300
C1762       C  0.81010329  0.38465379  0.54782027    -0.29400
H1763       H  0.75384988  0.37552023  0.54697365     0.14800
H1764       H  0.83693082  0.37217964  0.54774323     0.15300
C1765       C  0.80258470  0.11264056  0.54662756    -0.14300
C1766       C  0.77400313  0.13559538  0.54568508    -0.29400
H1767       H  0.82966165  0.12413872  0.54775500     0.14800
H1768       H  0.74689347  0.12430613  0.54435164     0.15300
C1769       C  0.94205935  0.39196713  0.54874996    -0.14300
C1770       C  0.96884488  0.36668906  0.54864827    -0.29400
H1771       H  0.41133864  0.37325974  0.54718928     0.14800
H1772       H  0.99698846  0.37558011  0.54894177     0.15300
C1773       C  0.95983935  0.11722847  0.54671260    -0.14300
C1774       C  0.93288506  0.14233880  0.54681254    -0.29400
H1775       H  0.48843967  0.11734290  0.54492667     0.14800
H1776       H  0.90478649  0.13331645  0.54636811     0.15300
C1777       C  0.89901546  0.21760693  0.93919377    -0.14300
C1778       C  0.87526715  0.18950108  0.93969683    -0.29400
H1779       H  0.88845986  0.24522130  0.93898725     0.14800
H1780       H  0.88586957  0.16189588  0.93981064     0.15300
C1781       C  0.64855326  0.21061648  0.93909310    -0.14300
C1782       C  0.62528752  0.18221465  0.93901095    -0.29400
H1783       H  0.63763131  0.23809494  0.93895086     0.14800
H1784       H  0.63646408  0.15482915  0.93935846     0.15300
C1785       C  0.90474160  0.57012697  0.94096773    -0.14300
C1786       C  0.88121881  0.54185666  0.94082569    -0.29400
H1787       H  0.89407726  0.59763659  0.94055719     0.14800
H1788       H  0.86570444  0.00602088  0.93824760     0.15300
C1789       C  0.63067950  0.53328408  0.93911982    -0.14300
C1790       C  0.65468582  0.56107133  0.94003319    -0.29400
H1791       H  0.64087729  0.50559110  0.93824895     0.14800
H1792       H  0.61752365  0.07833936  0.94019772     0.15300
C1793       C  0.88402311  0.24440976  0.18555479    -0.11100
C1794       C  0.85151062  0.24498131  0.18595594    -0.12700
C1795       C  0.60170627  0.21896030  0.19032284    -0.11100
C1796       C  0.63423941  0.21972627  0.19068346    -0.12700
C1797       C  0.90737215  0.53288146  0.18848307    -0.11100
C1798       C  0.87498896  0.53031896  0.18818027    -0.12700
C1799       C  0.62451996  0.51381963  0.18951720    -0.11100
C1800       C  0.65699256  0.51456761  0.18962361    -0.12700
C1801       C  0.75775025  0.22328845  0.99811684    -0.14300
C1802       C  0.75899133  0.19380122  0.98870481    -0.29400
H1803       H  0.75816994  0.25026911  0.99285965     0.14800
H1804       H  0.75824554  0.16679889  0.99393656     0.15300
C1805       C  0.74830741  0.21473781  0.09536253    -0.16300
C1806       C  0.74581050  0.21531194  0.10965597     0.07700
C1807       C  0.74300899  0.21731384  0.12640607     0.09600
C1808       C  0.74134562  0.21997691  0.14067761    -0.17200
C1809       C  0.76924009  0.56911974  0.99893076    -0.14300
C1810       C  0.76637197  0.54099229  0.98882640    -0.29400
H1811       H  0.75656270  0.08654058  0.99188822     0.14800
H1812       H  0.76328220  0.51359869  0.99346181     0.15300
C1813       C  0.76327743  0.53320884  0.14078144    -0.16300
C1814       C  0.76298932  0.53685380  0.12655502     0.07700
C1815       C  0.74946491  0.04332230  0.10789048     0.09600
C1816       C  0.76361986  0.54491651  0.09566128    -0.17200
C1817       C  0.88946018  0.19143003  0.04693906    -0.14300
C1818       C  0.86736004  0.22090164  0.04744542    -0.29400
H1819       H  0.87718423  0.16458402  0.04686829     0.14800
H1820       H  0.87959678  0.24775748  0.04769287     0.15300
C1821       C  0.61773020  0.18941365  0.04648333    -0.14300
C1822       C  0.63934714  0.21909846  0.04569935    -0.29400
H1823       H  0.63038930  0.16277315  0.04745838     0.14800
H1824       H  0.62666539  0.24576902  0.04497592     0.15300
C1825       C  0.50902348  0.20129323  0.98683857    -0.14300
C1826       C  0.50639046  0.17425735  0.99749527    -0.29400
H1827       H  0.01196463  0.23811268  0.99318813     0.14800
H1828       H  0.50556378  0.14634255  0.99342253     0.15300
C1829       C  0.50196270  0.20573977  0.09403019    -0.16300
C1830       C  0.50095670  0.20974526  0.10825003     0.07700
C1831       C  0.49950772  0.21404320  0.12494448     0.09600
C1832       C  0.49808874  0.21733409  0.13919216    -0.17200
C1833       C  0.90346810  0.57073365  0.04911966    -0.14300
C1834       C  0.87912247  0.54326982  0.04851010    -0.29400
H1835       H  0.88128755  0.09128646  0.04765937     0.14800
H1836       H  0.88903411  0.51542141  0.04815099     0.15300
C1837       C  0.62932884  0.54177581  0.04639208    -0.14300
C1838       C  0.65351227  0.56935150  0.04737886    -0.29400
H1839       H  0.62713642  0.00634821  0.04314007     0.14800
H1840       H  0.64346546  0.59703988  0.04846439     0.15300
C1841       C  0.01512896  0.54685195  0.00075288    -0.09500
C1842       C  0.01830159  0.57469895  0.99047763    -0.29400
H1843       H  0.99518786  0.00881731  0.99417583     0.14800
H1844       H  0.51359630  0.51173703  0.99307695     0.15300
C1845       C  0.01907546  0.56187461  0.14337612    -0.16300
C1846       C  0.01896803  0.56470589  0.12908178     0.07700
C1847       C  0.01365080  0.05781573  0.10957125     0.09600
C1848       C  0.01775101  0.56539879  0.09791682    -0.17200
C1849       C  0.77957007  0.24824761  0.48742053    -0.14300
C1850       C  0.80509479  0.24878299  0.49877978    -0.29400
H1851       H  0.75104208  0.24832442  0.49077710     0.14800
H1852       H  0.83365733  0.24858975  0.49550402     0.15300
C1853       C  0.77658912  0.38360792  0.44049170    -0.14300
C1854       C  0.80519709  0.36079035  0.43926266    -0.29400
H1855       H  0.74955043  0.37205673  0.44165650     0.14800
H1856       H  0.83237552  0.37222735  0.43863428     0.15300
C1857       C  0.77295738  0.11107169  0.43805581    -0.14300
C1858       C  0.80179379  0.13341078  0.43944098    -0.29400
H1859       H  0.74604322  0.12301386  0.43681772     0.14800
H1860       H  0.82860263  0.12137394  0.44087262     0.15300
C1861       C  0.80977803  0.49816461  0.48803051    -0.14300
C1862       C  0.78541770  0.49885111  0.49986142    -0.29400
H1863       H  0.74724861  0.99825101  0.49327260     0.14800
H1864       H  0.75661464  0.49932556  0.49695969     0.15300
C1865       C  0.92988636  0.25545427  0.48906561    -0.14300
C1866       C  0.95845757  0.25282288  0.49899630    -0.29400
H1867       H  0.90266674  0.25884686  0.49383021     0.14800
H1868       H  0.49314231  0.23907766  0.49476941     0.15300
C1869       C  0.93184071  0.39204610  0.44102516    -0.14300
C1870       C  0.95884421  0.36706721  0.44195530    -0.29400
H1871       H  0.90397054  0.38272344  0.43977278     0.14800
H1872       H  0.49618402  0.36886373  0.44098700     0.15300
C1873       C  0.94902007  0.11708858  0.43879553    -0.14300
C1874       C  0.92277397  0.14287587  0.43856181    -0.29400
H1875       H  0.97724005  0.12562615  0.43950166     0.14800
H1876       H  0.48629314  0.11927486  0.43922186     0.15300
C1877       C  0.93212602  0.50646471  0.49018396    -0.14300
C1878       C  0.96070514  0.50317240  0.50006466    -0.29400
H1879       H  0.89820262  0.01013141  0.49223052     0.14800
H1880       H  0.40703129  0.50070193  0.49431214     0.15300
C1881       C  0.74901658  0.24568154  0.23695972    -0.11100
C1882       C  0.75316678  0.24884998  0.25113070    -0.12700
C1883       C  0.79799989  0.25343013  0.34618496    -0.16300
C1884       C  0.80463232  0.25198305  0.36023030     0.07700
C1885       C  0.81066701  0.24994608  0.37683835     0.09600
C1886       C  0.81263524  0.24843478  0.39114449    -0.17200
C1887       C  0.77214394  0.39557601  0.29776562    -0.11100
C1888       C  0.77458486  0.36307535  0.29766002    -0.12700
C1889       C  0.77354638  0.14386289  0.29967587    -0.11100
C1890       C  0.77435521  0.11134013  0.29948559    -0.12700
C1891       C  0.76700224  0.51049440  0.25143356    -0.11100
C1892       C  0.76782582  0.51268536  0.23714530    -0.12700
C1893       C  0.75317730  0.49907884  0.34797194    -0.16300
C1894       C  0.75213102  0.49784663  0.36228228     0.07700
C1895       C  0.78437379  0.99617121  0.37593490     0.09600
C1896       C  0.75589788  0.49649396  0.39334129    -0.17200
C1897       C  0.98263225  0.24635558  0.25039076    -0.11100
C1898       C  0.98522611  0.24262664  0.23618552    -0.12700
C1899       C  0.96430764  0.25839620  0.34688860    -0.16300
C1900       C  0.96102531  0.25832604  0.36115521     0.07700
C1901       C  0.47878944  0.24702040  0.37762864     0.09600
C1902       C  0.95329343  0.25695080  0.39212174    -0.17200
C1903       C  0.98976996  0.39546214  0.29696222    -0.11100
C1904       C  0.98708978  0.36299552  0.29679217    -0.12700
C1905       C  0.96105738  0.14542888  0.30011698    -0.11100
C1906       C  0.95951913  0.11293422  0.29975318    -0.12700
C1907       C  0.00647955  0.51853331  0.25301142    -0.11100
C1908       C  0.00974488  0.52459135  0.23897540    -0.12700
C1909       C  0.97721520  0.49806673  0.34866831    -0.16300
C1910       C  0.97191947  0.49870015  0.36281016     0.07700
C1911       C  0.45330504  0.49299370  0.37629570     0.09600
C1912       C  0.96007691  0.50191554  0.39348696    -0.17200
C1913       C  0.76041026  0.21135647  0.84630795    -0.16300
C1914       C  0.76067546  0.20855463  0.86055996     0.07700
C1915       C  0.76145964  0.20621164  0.87728912     0.09600
C1916       C  0.76209888  0.20468575  0.89157508    -0.17200
C1917       C  0.76823217  0.55896906  0.89174086    -0.16300
C1918       C  0.73506715  0.04833255  0.87578458     0.07700
C1919       C  0.76689620  0.55590732  0.86063155     0.09600
C1920       C  0.76635461  0.55190461  0.84640105    -0.17200
C1921       C  0.87359065  0.22710881  0.80053866    -0.11100
C1922       C  0.90608772  0.22908034  0.80051028    -0.12700
C1923       C  0.65433291  0.22191226  0.79612035    -0.11100
C1924       C  0.62179573  0.21971977  0.79589937    -0.12700
C1925       C  0.51475483  0.18965146  0.84441561    -0.16300
C1926       C  0.51441506  0.18449843  0.85860768     0.07700
C1927       C  0.01697572  0.21019951  0.87659982     0.09600
C1928       C  0.51319161  0.17876951  0.88971985    -0.17200
C1929       C  0.87060859  0.01844275  0.80001824    -0.11100
C1930       C  0.83813408  0.01828612  0.79937088    -0.12700
C1931       C  0.58770783  0.03631544  0.79486369    -0.11100
C1932       C  0.62022730  0.03657942  0.79500890    -0.12700
C1933       C  0.01770126  0.54418002  0.89390817    -0.16300
C1934       C  0.98774131  0.03610187  0.87733029     0.07700
C1935       C  0.51576543  0.54940292  0.85998580     0.09600
C1936       C  0.01729824  0.52975270  0.84888213    -0.17200
C1937       C  0.77186471  0.24237605  0.73625012    -0.11100
C1938       C  0.77050903  0.23890659  0.75047181    -0.12700
C1939       C  0.76401893  0.25211570  0.63964494    -0.16300
C1940       C  0.76188344  0.25157864  0.62535132     0.07700
C1941       C  0.76044963  0.25057795  0.60857134     0.09600
C1942       C  0.76163240  0.24976690  0.59426175    -0.17200
C1943       C  0.79004035  0.38965552  0.69049026    -0.11100
C1944       C  0.78642283  0.35731041  0.69014589    -0.12700
C1945       C  0.75264064  0.10840394  0.68565249    -0.11100
C1946       C  0.75417549  0.14087805  0.68601091    -0.12700
C1947       C  0.77235145  0.50725393  0.73675576    -0.11100
C1948       C  0.76958646  0.51226666  0.75089636    -0.12700
C1949       C  0.82316502  0.49728017  0.59602245    -0.16300
C1950       C  0.82142546  0.49676448  0.61035907     0.07700
C1951       C  0.77686869  0.99664977  0.62496583     0.09600
C1952       C  0.80955062  0.49609832  0.64113274    -0.17200
C1953       C  0.50149030  0.23721241  0.73500744    -0.11100
C1954       C  0.50582049  0.23169234  0.74904270    -0.12700
C1955       C  0.95443450  0.26312880  0.64142900    -0.16300
C1956       C  0.94999364  0.26129442  0.62724770     0.07700
C1957       C  0.94667167  0.25867236  0.61053723     0.09600
C1958       C  0.94565648  0.25665881  0.59623742    -0.17200
C1959       C  0.98567837  0.40474388  0.69037967    -0.11100
C1960       C  0.98362517  0.37229013  0.68993683    -0.12700
C1961       C  0.96612580  0.15402279  0.68778709    -0.11100
C1962       C  0.96294783  0.12167881  0.68713873    -0.12700
C1963       C  0.97091312  0.01862534  0.74992814    -0.11100
C1964       C  0.96730097  0.01663804  0.73572645    -0.12700
C1965       C  0.97268114  0.51175818  0.64234240    -0.16300
C1966       C  0.96667965  0.51026404  0.62825616     0.07700
C1967       C  0.93927614  0.00676512  0.60850911     0.09600
C1968       C  0.95705371  0.50689141  0.59742490    -0.17200
O1969       O  0.92133378  0.96042569  0.68992733    -0.70800
O1970       O  0.96610722  0.56991089  0.69176682    -0.71700
O1971       O  0.95305464  0.51536560  0.66877667    -0.60400
O1972       O  0.97190185  0.51639855  0.71578038    -0.68800
O1973       O  0.49742771  0.00629858  0.71025499    -0.68300
O1974       O  0.49455022  0.99951940  0.66280147    -0.59600
O1975       O  0.52592912  0.55513862  0.68448276    -0.72100
O1976       O  0.49915756  0.94888360  0.68806244    -0.70900
Cu1977     Cu  0.96050645  0.51610009  0.69242922     1.04600
Cu1978     Cu  0.49793262  0.00298992  0.68651648     1.04300
C1979       C  0.46991669  0.93044840  0.68899732     0.95400
C1980       C  0.49489527  0.57043338  0.68569929     0.94600
C1981       C  0.94719615  0.01045925  0.65653291     0.86700
C1982       C  0.50800308  0.50554780  0.71869470     0.93000
O1983       O  0.95649094  0.70448335  0.69090900    -0.70800
O1984       O  0.93347143  0.81020856  0.69169919    -0.71700
O1985       O  0.93756206  0.75668000  0.66762012    -0.60400
O1986       O  0.95259183  0.75777967  0.71500347    -0.68800
O1987       O  0.51904441  0.74898123  0.71025194    -0.68300
O1988       O  0.50173389  0.75543499  0.66276654    -0.59600
O1989       O  0.50702320  0.80625363  0.68803416    -0.72100
O1990       O  0.51474846  0.69889531  0.68484596    -0.70900
Cu1991     Cu  0.94298375  0.75686440  0.69143862     1.04600
Cu1992     Cu  0.51276113  0.75265972  0.68634757     1.04300
C1993       C  0.98924189  0.69391471  0.68904900     0.95400
C1994       C  0.95936149  0.83281342  0.68999612     0.94600
C1995       C  0.96452053  0.76249884  0.65843272     0.86700
C1996       C  0.49174607  0.74511135  0.71949390     0.93000
O1997       O  0.77174349  0.00085001  0.71242086    -0.70800
O1998       O  0.78921750  0.99598034  0.66543664    -0.71700
O1999       O  0.81866414  0.55405254  0.69009181    -0.60400
O2000       O  0.77823306  0.94402553  0.68992787    -0.68800
O2001       O  0.71850839  0.94580219  0.68568576    -0.68300
O2002       O  0.75899600  0.55227623  0.68565757    -0.59600
O2003       O  0.72968537  0.99752830  0.66096827    -0.72100
O2004       O  0.71202829  0.00249427  0.70841311    -0.70900
Cu2005     Cu  0.78228095  0.99815949  0.68908142     1.04600
Cu2006     Cu  0.71837662  0.99984060  0.68453606     1.04300
C2007       C  0.73938093  0.00292082  0.71780070     0.95400
C2008       C  0.76241181  0.99641099  0.65581779     0.94600
C2009       C  0.78832891  0.56998384  0.68759349     0.86700
C2010       C  0.74771497  0.92805366  0.68822591     0.93000
O2011       O  0.79029333  0.74984530  0.71333306    -0.70800
O2012       O  0.79525641  0.75582509  0.66544431    -0.71700
O2013       O  0.78442406  0.80627677  0.69037460    -0.60400
O2014       O  0.80226012  0.70014510  0.68841320    -0.68800
O2015       O  0.74261900  0.69032208  0.68702549    -0.68300
O2016       O  0.72465554  0.79746619  0.68890383    -0.59600
O2017       O  0.73565941  0.74637801  0.66420055    -0.72100
O2018       O  0.73069677  0.74064822  0.71174334    -0.70900
Cu2019     Cu  0.79514139  0.75345340  0.68945431     1.04600
Cu2020     Cu  0.73127106  0.74342733  0.68792984     1.04300
C2021       C  0.75966635  0.74367178  0.71997823     0.95400
C2022       C  0.76611471  0.75171187  0.65734934     0.94600
C2023       C  0.75206302  0.81858523  0.68978543     0.86700
C2024       C  0.77531379  0.67864047  0.68746562     0.93000
O2025       O  0.02127121  0.55521753  0.82345552    -0.70800
O2026       O  0.02040687  0.54810429  0.77587474    -0.71700
O2027       O  0.96741649  0.55945673  0.79955236    -0.60400
O2028       O  0.57053882  0.55883427  0.79611086    -0.68800
O2029       O  0.53663316  0.00007961  0.79717395    -0.68300
O2030       O  0.92788666  0.99171153  0.80028832    -0.59600
O2031       O  0.97799772  0.99204127  0.77504397    -0.72100
O2032       O  0.98502963  0.99867720  0.82257186    -0.70900
Cu2033     Cu  0.02121527  0.55364976  0.79961402     1.04600
Cu2034     Cu  0.98178178  0.99320445  0.79885049     1.04300
C2035       C  0.01720552  0.52662487  0.83185144     0.95400
C2036       C  0.01576908  0.51726868  0.76923025     0.94600
C2037       C  0.94669915  0.53180120  0.80032490     0.86700
C2038       C  0.58678717  0.52851793  0.79808745     0.93000
O2039       O  0.94496224  0.76956515  0.80298191    -0.70800
O2040       O  0.55712798  0.73331339  0.80022970    -0.71700
O2041       O  0.50370700  0.75189334  0.77738641    -0.60400
O2042       O  0.50336677  0.72777032  0.82418908    -0.68800
O2043       O  0.49630744  0.66919581  0.81856430    -0.68300
O2044       O  0.49661711  0.69331897  0.77179067    -0.59600
O2045       O  0.55044832  0.67458544  0.79457657    -0.72100
O2046       O  0.94404351  0.71014358  0.79795249    -0.70900
Cu2047     Cu  0.50391503  0.74194686  0.80101200     1.04600
Cu2048     Cu  0.49631576  0.67917532  0.79497746     1.04300
C2049       C  0.92767631  0.74005307  0.80076611     0.95400
C2050       C  0.57055370  0.70212804  0.79719743     0.94600
C2051       C  0.50008852  0.72631526  0.76725621     0.86700
C2052       C  0.49940952  0.69481197  0.82870120     0.93000
O2053       O  0.78048565  0.99239630  0.79967130    -0.70800
O2054       O  0.67282914  0.00222951  0.79785467    -0.71700
O2055       O  0.72778084  0.98917359  0.77508280    -0.60400
O2056       O  0.72571922  0.00522961  0.82235402    -0.68800
O2057       O  0.76489915  0.57196265  0.81986964    -0.68300
O2058       O  0.76643267  0.55206706  0.77274006    -0.59600
O2059       O  0.71174949  0.55965099  0.79615977    -0.72100
O2060       O  0.81945929  0.56489243  0.79649571    -0.70900
Cu2061     Cu  0.72644714  0.99513878  0.79886414     1.04600
Cu2062     Cu  0.76549349  0.56424378  0.79613397     1.04300
C2063       C  0.83761747  0.53593408  0.79900886     0.95400
C2064       C  0.69624070  0.52919431  0.79849164     0.94600
C2065       C  0.76814836  0.51927876  0.76774003     0.86700
C2066       C  0.72851326  0.03742575  0.82790252     0.93000
O2067       O  0.75683415  0.69724985  0.77385383    -0.70800
O2068       O  0.75251998  0.68377093  0.82138691    -0.71700
O2069       O  0.70154404  0.68029051  0.79620711    -0.60400
O2070       O  0.80745453  0.69979970  0.79902570    -0.68800
O2071       O  0.79683638  0.75905965  0.80194745    -0.68300
O2072       O  0.69057545  0.73946933  0.79914300    -0.59600
O2073       O  0.74167323  0.74291686  0.82416375    -0.72100
O2074       O  0.74590944  0.75629691  0.77691037    -0.70900
Cu2075     Cu  0.75495638  0.68816434  0.79750906     1.04600
Cu2076     Cu  0.74328189  0.75150782  0.80064336     1.04300
C2077       C  0.75243824  0.72904374  0.76798386     0.95400
C2078       C  0.74658451  0.71143670  0.83019289     0.94600
C2079       C  0.67947918  0.70690041  0.79732472     0.86700
C2080       C  0.81871588  0.73224425  0.80086079     0.93000
O2081       O  0.92856960  0.95023739  0.29267611    -0.70800
O2082       O  0.96305610  0.55925090  0.30130318    -0.71700
O2083       O  0.93973875  0.00796847  0.27068308    -0.60400
O2084       O  0.91955514  0.00092298  0.31791663    -0.68800
O2085       O  0.48898421  0.99086112  0.32329042    -0.68300
O2086       O  0.51416729  0.99623379  0.27660071    -0.59600
O2087       O  0.52569595  0.54619602  0.30247821    -0.72100
O2088       O  0.50232801  0.93984852  0.29877022    -0.70900
Cu2089     Cu  0.92717205  0.00430851  0.29409608     1.04600
Cu2090     Cu  0.50389104  0.99345523  0.30017701     1.04300
C2091       C  0.95814819  0.93266460  0.29459156     0.95400
C2092       C  0.99321549  0.57525753  0.30372672     0.94600
C2093       C  0.97275013  0.00871419  0.26587346     0.86700
C2094       C  0.94648265  0.99958117  0.32752937     0.93000
O2095       O  0.93645025  0.80240897  0.29599648    -0.70800
O2096       O  0.95245373  0.69603867  0.30205096    -0.71700
O2097       O  0.94138078  0.75538874  0.32255784    -0.60400
O2098       O  0.94691278  0.74200591  0.27547366    -0.68800
O2099       O  0.51532926  0.74230922  0.27368574    -0.68300
O2100       O  0.52396116  0.75110637  0.32112019    -0.59600
O2101       O  0.52523693  0.69319005  0.29910873    -0.72100
O2102       O  0.51358916  0.80049570  0.29560092    -0.70900
Cu2103     Cu  0.94218385  0.74875402  0.29898082     1.04600
Cu2104     Cu  0.52170153  0.74704795  0.29730230     1.04300
C2105       C  0.96411216  0.82324177  0.29560772     0.95400
C2106       C  0.98484777  0.68396026  0.30338999     0.94600
C2107       C  0.97029644  0.76110027  0.33053286     0.86700
C2108       C  0.97763664  0.74344013  0.26849435     0.93000
O2109       O  0.76103167  0.94575455  0.29539604    -0.70800
O2110       O  0.72458495  0.55584930  0.29983284    -0.71700
O2111       O  0.75192834  0.00347619  0.27342123    -0.60400
O2112       O  0.75756993  0.99589467  0.32078066    -0.68800
O2113       O  0.81765143  0.00198445  0.31989701    -0.68300
O2114       O  0.81196204  0.00968618  0.27209685    -0.59600
O2115       O  0.78473227  0.56110152  0.30163702    -0.72100
O2116       O  0.82117542  0.95187150  0.29428092    -0.70900
Cu2117     Cu  0.75287013  0.99926956  0.29712028     1.04600
Cu2118     Cu  0.81723913  0.00583248  0.29593203     1.04300
C2119       C  0.79284261  0.93201516  0.29442423     0.95400
C2120       C  0.75312301  0.57529666  0.30103184     0.94600
C2121       C  0.78082002  0.00837028  0.26535345     0.86700
C2122       C  0.78824224  0.99809302  0.32779789     0.93000
O2123       O  0.81471118  0.80027806  0.29362710    -0.70800
O2124       O  0.79236910  0.69443020  0.29725019    -0.71700
O2125       O  0.79165763  0.74553682  0.27213018    -0.60400
O2126       O  0.81556406  0.74875451  0.31885275    -0.68800
O2127       O  0.75776085  0.76133411  0.32422461    -0.68300
O2128       O  0.73382226  0.75813353  0.27745058    -0.59600
O2129       O  0.73444955  0.70706313  0.30260123    -0.72100
O2130       O  0.75673624  0.81258283  0.29899834    -0.70900
Cu2131     Cu  0.80563877  0.74681014  0.29528455     1.04600
Cu2132     Cu  0.74368696  0.76031159  0.30101991     1.04300
C2133       C  0.78888237  0.82297546  0.29569165     0.95400
C2134       C  0.76004373  0.68422434  0.30039565     0.94600
C2135       C  0.75901337  0.75109056  0.26748442     0.86700
C2136       C  0.79033890  0.75526430  0.32886818     0.93000
O2137       O  0.47510680  0.99656583  0.45941022    -0.70800
O2138       O  0.46266319  0.99561237  0.41239010    -0.71700
O2139       O  0.48294391  0.55130362  0.43795567    -0.60400
O2140       O  0.47043490  0.94018520  0.43615995    -0.68800
O2141       O  0.89685789  0.95306268  0.43788525    -0.68300
O2142       O  0.92162644  0.56327972  0.43982741    -0.59600
O2143       O  0.90535993  0.00758287  0.41386896    -0.72100
O2144       O  0.89977285  0.00923988  0.46143718    -0.70900
Cu2145     Cu  0.47032283  0.99626313  0.43586647     1.04600
Cu2146     Cu  0.90083412  0.00870255  0.43763059     1.04300
C2147       C  0.92856704  0.00586519  0.46978000     0.95400
C2148       C  0.93596477  0.00306314  0.40702370     0.94600
C2149       C  0.95328571  0.57722613  0.44148683     0.86700
C2150       C  0.92479546  0.93215479  0.43879159     0.93000
O2151       O  0.51405021  0.74836168  0.41873762    -0.70800
O2152       O  0.49042844  0.74691337  0.46558596    -0.71700
O2153       O  0.50536073  0.69242227  0.44208352    -0.60400
O2154       O  0.50029267  0.80271836  0.44212207    -0.68800
O2155       O  0.91310320  0.81255805  0.43911979    -0.68300
O2156       O  0.90677476  0.70210336  0.43851532    -0.59600
O2157       O  0.90362753  0.75692456  0.46263743    -0.72100
O2158       O  0.91662113  0.75788750  0.41512262    -0.70900
Cu2159     Cu  0.50452198  0.74767584  0.44235134     1.04600
Cu2160     Cu  0.90795564  0.75741987  0.43874374     1.04300
C2161       C  0.94862704  0.75601704  0.40930317     0.95400
C2162       C  0.93162999  0.75453377  0.47157367     0.94600
C2163       C  0.93513030  0.68211002  0.43999565     0.86700
C2164       C  0.94424773  0.82763628  0.44064078     0.93000
O2165       O  0.80879397  0.99680742  0.41532663    -0.70800
O2166       O  0.80567430  0.99764491  0.46293707    -0.71700
O2167       O  0.80598751  0.94106714  0.43927767    -0.60400
O2168       O  0.80880649  0.55345241  0.43728732    -0.68800
O2169       O  0.75020248  0.55207235  0.44333944    -0.68300
O2170       O  0.74577859  0.94257363  0.43829890    -0.59600
O2171       O  0.74537896  0.99783723  0.46223904    -0.72100
O2172       O  0.74845264  0.99701050  0.41419237    -0.70900
Cu2173     Cu  0.80879136  0.99722098  0.43914469     1.04600
Cu2174     Cu  0.74437308  0.99743704  0.43815803     1.04300
C2175       C  0.77940420  0.99674658  0.40728444     0.95400
C2176       C  0.77515510  0.99790237  0.47014172     0.94600
C2177       C  0.77534660  0.92431306  0.43877139     0.86700
C2178       C  0.77878830  0.57026138  0.44012070     0.93000
O2179       O  0.83555825  0.74919863  0.41684923    -0.70800
O2180       O  0.82061691  0.74622634  0.46474507    -0.71700
O2181       O  0.82994149  0.69281860  0.44022693    -0.60400
O2182       O  0.82870457  0.80239782  0.44141351    -0.68800
O2183       O  0.76904574  0.80341790  0.43771852    -0.68300
O2184       O  0.77020143  0.69097980  0.43701493    -0.59600
O2185       O  0.76101172  0.74625333  0.46070652    -0.72100
O2186       O  0.77562284  0.74829597  0.41376237    -0.70900
Cu2187     Cu  0.83073048  0.74763629  0.44093716     1.04600
Cu2188     Cu  0.76688949  0.74719809  0.43717400     1.04300
C2189       C  0.80747752  0.74937507  0.40785510     0.95400
C2190       C  0.78803000  0.74596309  0.47017181     0.94600
C2191       C  0.80084925  0.67439171  0.43852861     0.86700
C2192       C  0.79923992  0.82041423  0.43969687     0.93000
O2193       O  0.55569181  0.01065881  0.04379451    -0.70800
O2194       O  0.94503825  0.02539278  0.04889767    -0.71700
O2195       O  0.99811107  0.01381680  0.02480021    -0.60400
O2196       O  0.00275067  0.02441914  0.07206255    -0.68800
O2197       O  0.02039195  0.59128010  0.07235964    -0.68300
O2198       O  0.01910399  0.58274649  0.02454184    -0.59600
O2199       O  0.96467603  0.59273927  0.04849318    -0.72100
O2200       O  0.57512060  0.57896338  0.04824557    -0.70900
Cu2201     Cu  0.00017653  0.01735056  0.04847901     1.04600
Cu2202     Cu  0.01994078  0.58899331  0.04838519     1.04300
C2203       C  0.57629718  0.03869932  0.04461157     0.95400
C2204       C  0.93122635  0.05733846  0.04769730     0.94600
C2205       C  0.00008518  0.04177360  0.01589107     0.86700
C2206       C  0.00745135  0.05565751  0.07830010     0.93000
O2207       O  0.53020091  0.65988812  0.04888480    -0.70800
O2208       O  0.91983395  0.67123655  0.04922367    -0.71700
O2209       O  0.97439950  0.66010839  0.02537321    -0.60400
O2210       O  0.47598968  0.67505274  0.07226203    -0.68800
O2211       O  0.48271933  0.73418090  0.06778185    -0.68300
O2212       O  0.48159318  0.71447389  0.02066598    -0.59600
O2213       O  0.92722212  0.73079667  0.04698958    -0.72100
O2214       O  0.53702625  0.71887710  0.04449522    -0.70900
Cu2215     Cu  0.47475888  0.66362173  0.04897695     1.04600
Cu2216     Cu  0.48223584  0.72658968  0.04408202     1.04300
C2217       C  0.55099340  0.68740624  0.04682138     0.95400
C2218       C  0.90616619  0.70327939  0.04818481     0.94600
C2219       C  0.47806735  0.68183375  0.01559867     0.86700
C2220       C  0.47977585  0.70747443  0.07738215     0.93000
O2221       O  0.77090063  0.59218651  0.02524791    -0.70800
O2222       O  0.76828675  0.58065766  0.07268060    -0.71700
O2223       O  0.82478326  0.58066156  0.04931108    -0.60400
O2224       O  0.71451558  0.59181109  0.04866299    -0.68800
O2225       O  0.69513931  0.02538864  0.04427315    -0.68300
O2226       O  0.80513373  0.01436907  0.04489742    -0.59600
O2227       O  0.74911434  0.01657680  0.06838188    -0.72100
O2228       O  0.75071111  0.02410339  0.02068858    -0.70900
Cu2229     Cu  0.76980008  0.58834860  0.04906078     1.04600
Cu2230     Cu  0.74992083  0.01801906  0.04448185     1.04300
C2231       C  0.75376257  0.05541260  0.01418469     0.95400
C2232       C  0.75178420  0.04559075  0.07662220     0.94600
C2233       C  0.82596731  0.04209191  0.04605352     0.86700
C2234       C  0.68087991  0.05711900  0.04508118     0.93000
O2235       O  0.66991044  0.67309451  0.04670306    -0.70800
O2236       O  0.77971359  0.66137646  0.04811011    -0.71700
O2237       O  0.72296191  0.66501770  0.07143273    -0.60400
O2238       O  0.72703835  0.67068048  0.02336320    -0.68800
O2239       O  0.73360961  0.73049038  0.02522108    -0.68300
O2240       O  0.72999970  0.72492324  0.07252227    -0.59600
O2241       O  0.78713091  0.72106519  0.04940063    -0.72100
O2242       O  0.67647932  0.73289747  0.04812534    -0.70900
Cu2243     Cu  0.72469072  0.66547042  0.04735630     1.04600
Cu2244     Cu  0.73198310  0.72937004  0.04887770     1.04300
C2245       C  0.65581078  0.70492372  0.04721650     0.95400
C2246       C  0.80077630  0.68894571  0.04884947     0.94600
C2247       C  0.72585564  0.69439932  0.07945015     0.86700
C2248       C  0.73119791  0.70183377  0.01679491     0.93000
O2249       O  0.95223216  0.00980377  0.18329687    -0.70800
O2250       O  0.56478069  0.98312223  0.18765022    -0.71700
O2251       O  0.99778471  0.99514576  0.20938462    -0.60400
O2252       O  0.01202929  0.01227420  0.16257997    -0.68800
O2253       O  0.01457727  0.58295600  0.16972628    -0.68300
O2254       O  0.01011398  0.56428381  0.21699346    -0.59600
O2255       O  0.57043257  0.54605068  0.19050125    -0.72100
O2256       O  0.95893183  0.56811443  0.19194414    -0.70900
Cu2257     Cu  0.00518784  0.00157422  0.18582442     1.04600
Cu2258     Cu  0.01222301  0.57593267  0.19352731     1.04300
C2259       C  0.93817950  0.04133987  0.18464227     0.95400
C2260       C  0.58029130  0.01382438  0.18931219     0.94600
C2261       C  0.99718831  0.02225905  0.21884458     0.86700
C2262       C  0.01598207  0.04466103  0.15737578     0.93000
O2263       O  0.92892373  0.68326963  0.19057816    -0.70800
O2264       O  0.54074698  0.70590166  0.18913906    -0.71700
O2265       O  0.48572270  0.69940459  0.21223077    -0.60400
O2266       O  0.48934118  0.69518904  0.16450766    -0.68800
O2267       O  0.98381901  0.73821948  0.16460421    -0.68300
O2268       O  0.97999261  0.75176050  0.21167809    -0.59600
O2269       O  0.53164694  0.76571838  0.18798440    -0.72100
O2270       O  0.92778635  0.74333686  0.18726971    -0.70900
Cu2271     Cu  0.48793063  0.69507129  0.18840922     1.04600
Cu2272     Cu  0.98186067  0.74683034  0.18804512     1.04300
C2273       C  0.91152640  0.71288650  0.18856782     0.95400
C2274       C  0.55285854  0.73832135  0.18894549     0.94600
C2275       C  0.98020461  0.72415554  0.22082846     0.86700
C2276       C  0.48487745  0.72433495  0.15647655     0.93000
O2277       O  0.81761417  0.55651687  0.18970722    -0.70800
O2278       O  0.70995018  0.54857318  0.19057778    -0.71700
O2279       O  0.76513768  0.54761683  0.21388821    -0.60400
O2280       O  0.76231555  0.55773753  0.16643373    -0.68800
O2281       O  0.75735098  0.00665001  0.16169437    -0.68300
O2282       O  0.76930894  0.99452756  0.20861665    -0.59600
O2283       O  0.70965959  0.99390619  0.18729547    -0.72100
O2284       O  0.81634623  0.00786852  0.18294779    -0.70900
Cu2285     Cu  0.76360549  0.55474003  0.19024021     1.04600
Cu2286     Cu  0.76336525  0.99863910  0.18503326     1.04300
C2287       C  0.82945592  0.03984614  0.18388963     0.95400
C2288       C  0.68956974  0.02176686  0.18943809     0.94600
C2289       C  0.76817130  0.02234763  0.21763042     0.86700
C2290       C  0.75239549  0.03824292  0.15581345     0.93000
O2291       O  0.67476899  0.70641577  0.19265961    -0.70800
O2292       O  0.78180774  0.69033696  0.19036596    -0.71700
O2293       O  0.73280392  0.70747772  0.21498919    -0.60400
O2294       O  0.72413288  0.68875095  0.16809287    -0.68800
O2295       O  0.73175431  0.74766891  0.16330646    -0.68300
O2296       O  0.74056436  0.76644974  0.21038796    -0.59600
O2297       O  0.78923475  0.74942353  0.18563494    -0.72100
O2298       O  0.68251963  0.76545872  0.18796642    -0.70900
Cu2299     Cu  0.72799634  0.69617597  0.19170328     1.04600
Cu2300     Cu  0.73623280  0.75934961  0.18666115     1.04300
C2301       C  0.66192602  0.73829625  0.19051274     0.95400
C2302       C  0.80221352  0.71764030  0.18773123     0.94600
C2303       C  0.73868967  0.73968333  0.22002944     0.86700
C2304       C  0.72685084  0.71518460  0.15835088     0.93000
O2305       O  0.02106313  0.59649990  0.96387226    -0.70800
O2306       O  0.02057859  0.58173819  0.91645462    -0.71700
O2307       O  0.96549473  0.59377148  0.93994567    -0.60400
O2308       O  0.57658279  0.57069637  0.94022624    -0.68800
O2309       O  0.54271339  0.00043703  0.93767594    -0.68300
O2310       O  0.93288672  0.02598361  0.94134625    -0.59600
O2311       O  0.98654924  0.01453613  0.91744470    -0.72100
O2312       O  0.98961213  0.02714052  0.96498270    -0.70900
Cu2313     Cu  0.02099491  0.59114666  0.94003383     1.04600
Cu2314     Cu  0.98770322  0.01861606  0.94129527     1.04300
C2315       C  0.99366653  0.05897081  0.97086905     0.95400
C2316       C  0.98939719  0.04254415  0.90856961     0.94600
C2317       C  0.91847474  0.05749279  0.93972916     0.86700
C2318       C  0.56364559  0.02823092  0.93843131     0.93000
O2319       O  0.93511740  0.73577256  0.93951600    -0.70800
O2320       O  0.54500844  0.71199364  0.93803136    -0.71700
O2321       O  0.48964758  0.70989556  0.91395966    -0.60400
O2322       O  0.48827133  0.72086560  0.96114507    -0.68800
O2323       O  0.48495414  0.66108350  0.96433760    -0.68300
O2324       O  0.48758819  0.64985021  0.91632903    -0.59600
O2325       O  0.54109937  0.65225764  0.94091556    -0.72100
O2326       O  0.93075301  0.67573622  0.94064512    -0.70900
Cu2327     Cu  0.48896848  0.71696287  0.93753247     1.04600
Cu2328     Cu  0.48625293  0.65301326  0.94041926     1.04300
C2329       C  0.91545474  0.70701622  0.94012615     0.95400
C2330       C  0.56052363  0.68082054  0.93957357     0.94600
C2331       C  0.48921123  0.67838160  0.90767527     0.86700
C2332       C  0.48607491  0.69321796  0.97021000     0.93000
O2333       O  0.68352725  0.01498650  0.93786059    -0.70800
O2334       O  0.79451899  0.00844308  0.93720700    -0.71700
O2335       O  0.73997343  0.00722903  0.96114011    -0.60400
O2336       O  0.73814548  0.01532137  0.91373399    -0.68800
O2337       O  0.77066170  0.58537486  0.91720631    -0.68300
O2338       O  0.76988135  0.57677113  0.96500791    -0.59600
O2339       O  0.82566056  0.57744304  0.94123459    -0.72100
O2340       O  0.71511761  0.58490791  0.94103969    -0.70900
Cu2341     Cu  0.73893867  0.00943573  0.93740158     1.04600
Cu2342     Cu  0.77045711  0.58319749  0.94118478     1.04300
C2343       C  0.66848334  0.04636901  0.93899381     0.95400
C2344       C  0.81411013  0.03718115  0.93812824     0.94600
C2345       C  0.74327717  0.03572674  0.96963455     0.86700
C2346       C  0.73949206  0.04649800  0.90711643     0.93000
O2347       O  0.73724778  0.66726171  0.91561461    -0.70800
O2348       O  0.73375318  0.65527669  0.96286989    -0.71700
O2349       O  0.67999569  0.66679941  0.93878505    -0.60400
O2350       O  0.79110657  0.65739945  0.93973414    -0.68800
O2351       O  0.79611235  0.71708624  0.94248758    -0.68300
O2352       O  0.68597420  0.72642396  0.94148009    -0.59600
O2353       O  0.73900656  0.71494931  0.96587015    -0.72100
O2354       O  0.74273488  0.72709256  0.91825088    -0.70900
Cu2355     Cu  0.73539591  0.65962836  0.93915859     1.04600
Cu2356     Cu  0.74112597  0.72342812  0.94214893     1.04300
C2357       C  0.74064545  0.69880260  0.90950381     0.95400
C2358       C  0.73546669  0.68310794  0.97184932     0.94600
C2359       C  0.66556370  0.69850650  0.93999351     0.86700
C2360       C  0.81107601  0.68580639  0.94106629     0.93000
O2361       O  0.93213262  0.56314855  0.54853389    -0.70800
O2362       O  0.91024966  0.95300776  0.54494242    -0.71700
O2363       O  0.91241402  0.00838343  0.56889247    -0.60400
O2364       O  0.91946704  0.00801009  0.52113403    -0.68800
O2365       O  0.46882490  0.99281688  0.51950061    -0.68300
O2366       O  0.48582682  0.99152121  0.56703738    -0.59600
O2367       O  0.47384553  0.93708476  0.54340286    -0.72100
O2368       O  0.49133833  0.54584490  0.54462853    -0.70900
Cu2369     Cu  0.91386329  0.00842238  0.54497185     1.04600
Cu2370     Cu  0.47977967  0.99198887  0.54314796     1.04300
C2371       C  0.96395869  0.57715087  0.54876002     0.95400
C2372       C  0.93811474  0.93209470  0.54581261     0.94600
C2373       C  0.94136746  0.00503606  0.57715083     0.86700
C2374       C  0.95054642  0.00418288  0.51451662     0.93000
O2375       O  0.91660327  0.70202872  0.54783837    -0.70800
O2376       O  0.92465818  0.81260706  0.54671385    -0.71700
O2377       O  0.92213246  0.75587797  0.52329685    -0.60400
O2378       O  0.91937491  0.75872600  0.57131723    -0.68800
O2379       O  0.48191356  0.74360848  0.57210150    -0.68300
O2380       O  0.49375665  0.74131700  0.52507891    -0.59600
O2381       O  0.49171061  0.79784674  0.54816780    -0.72100
O2382       O  0.48185981  0.68679901  0.54870193    -0.70900
Cu2383     Cu  0.91855391  0.75743125  0.54727401     1.04600
Cu2384     Cu  0.48930480  0.74217516  0.54862230     1.04300
C2385       C  0.94509021  0.68189977  0.54834512     0.95400
C2386       C  0.95622548  0.82726303  0.54698987     0.94600
C2387       C  0.95292244  0.75283733  0.51634844     0.86700
C2388       C  0.94916133  0.75659772  0.57911337     0.93000
O2389       O  0.77129553  0.94221055  0.54529568    -0.70800
O2390       O  0.78000070  0.55499736  0.55007794    -0.71700
O2391       O  0.77172908  0.99862568  0.52150227    -0.60400
O2392       O  0.76626354  0.99839080  0.56898076    -0.68800
O2393       O  0.82648566  0.99920262  0.57080327    -0.68300
O2394       O  0.83196979  0.99926804  0.52260530    -0.59600
O2395       O  0.83944003  0.55290860  0.54588134    -0.72100
O2396       O  0.83137504  0.94460955  0.54680695    -0.70900
Cu2397     Cu  0.76755619  0.99852383  0.54522143     1.04600
Cu2398     Cu  0.83187805  0.99930908  0.54677085     1.04300
C2399       C  0.80225473  0.92590987  0.54614815     0.95400
C2400       C  0.81044213  0.57146698  0.54801623     0.94600
C2401       C  0.80247205  0.99888578  0.51449444     0.86700
C2402       C  0.79510793  0.99867726  0.57737078     0.93000
O2403       O  0.80671243  0.75037965  0.57234511    -0.70800
O2404       O  0.82458618  0.74807184  0.52551245    -0.71700
O2405       O  0.81267739  0.80540115  0.54819218    -0.60400
O2406       O  0.81608972  0.69292352  0.54944737    -0.68800
O2407       O  0.75652351  0.69274957  0.54543740    -0.68300
O2408       O  0.75330219  0.80222258  0.54392340    -0.59600
O2409       O  0.76521870  0.74611159  0.52092328    -0.72100
O2410       O  0.74700408  0.74894509  0.56844619    -0.70900
Cu2411     Cu  0.81712965  0.74925966  0.54902576     1.04600
Cu2412     Cu  0.75353390  0.74743029  0.54452291     1.04300
C2413       C  0.77439792  0.75011044  0.57780356     0.95400
C2414       C  0.79804910  0.74674338  0.51579655     0.94600
C2415       C  0.78191509  0.82129968  0.54585556     0.86700
C2416       C  0.78617311  0.67532851  0.54765868     0.93000
C2417       C  0.77795676  0.86190015  0.54538057    -0.14300
C2418       C  0.80598020  0.88529581  0.54653379    -0.29400
H2419       H  0.75067069  0.87284908  0.54395757     0.14800
H2420       H  0.83328207  0.87428478  0.54780679     0.15300
C2421       C  0.81328793  0.61217276  0.54807362    -0.14300
C2422       C  0.78422184  0.63462414  0.54817385    -0.29400
H2423       H  0.84033820  0.62394895  0.54759663     0.14800
H2424       H  0.75723455  0.62264678  0.54817266     0.15300
C2425       C  0.93287789  0.89171056  0.54588585    -0.14300
C2426       C  0.96078586  0.86769279  0.54667357    -0.29400
H2427       H  0.41143844  0.87096202  0.54614401     0.14800
H2428       H  0.98842165  0.87800765  0.54716782     0.15300
C2429       C  0.96884630  0.61758109  0.54870216    -0.14300
C2430       C  0.94071255  0.64143257  0.54851146    -0.29400
H2431       H  0.49904979  0.61679417  0.54620036     0.14800
H2432       H  0.91310883  0.63096494  0.54838250     0.15300
C2433       C  0.87482162  0.71062252  0.94037789    -0.14300
C2434       C  0.85167895  0.68197163  0.94086149    -0.29400
H2435       H  0.86363186  0.73798693  0.94018108     0.14800
H2436       H  0.86276406  0.65461434  0.94084053     0.15300
C2437       C  0.62512247  0.70391670  0.93966061    -0.14300
C2438       C  0.60103511  0.67627508  0.93973359    -0.29400
H2439       H  0.61493915  0.73168418  0.93960080     0.14800
H2440       H  0.61138517  0.64858611  0.94011278     0.15300
C2441       C  0.87795502  0.06191594  0.93929997    -0.14300
C2442       C  0.85466745  0.03344937  0.93853430    -0.29400
H2443       H  0.86708197  0.08941821  0.93933239     0.14800
H2444       H  0.89200255  0.51432623  0.94093773     0.15300
C2445       C  0.60407172  0.02291385  0.93827279    -0.14300
C2446       C  0.62798753  0.05076429  0.93923819    -0.29400
H2447       H  0.61435412  0.99528070  0.93732895     0.14800
H2448       H  0.64432466  0.58869039  0.94093206     0.15300
C2449       C  0.87300452  0.71199542  0.18780760    -0.11100
C2450       C  0.84050353  0.71302573  0.18747706    -0.12700
C2451       C  0.59106333  0.74351636  0.18988289    -0.11100
C2452       C  0.62359362  0.74324284  0.19050987    -0.12700
C2453       C  0.90002843  0.04493891  0.18312718    -0.11100
C2454       C  0.86757754  0.04434158  0.18287182    -0.12700
C2455       C  0.61881528  0.01524838  0.19019533    -0.11100
C2456       C  0.65127735  0.01745676  0.19029568    -0.12700
C2457       C  0.73354756  0.70594634  0.99938576    -0.14300
C2458       C  0.73297387  0.67785327  0.98922954    -0.29400
H2459       H  0.73620362  0.73342481  0.99479361     0.14800
H2460       H  0.73026447  0.65031536  0.99373209     0.15300
C2461       C  0.72450328  0.69370703  0.09653046    -0.16300
C2462       C  0.72393844  0.69653136  0.11081315     0.07700
C2463       C  0.72401739  0.70229487  0.12744443     0.09600
C2464       C  0.72482705  0.70813579  0.14155173    -0.17200
C2465       C  0.75240296  0.05951551  0.99677328    -0.14300
C2466       C  0.74531599  0.03153416  0.98702780    -0.29400
H2467       H  0.77252069  0.59651209  0.99433620     0.14800
H2468       H  0.74122760  0.00450101  0.99191107     0.15300
C2469       C  0.74973045  0.04195105  0.13891092    -0.16300
C2470       C  0.74902505  0.04311618  0.12463152     0.07700
C2471       C  0.76313095  0.54126502  0.10988519     0.09600
C2472       C  0.75043543  0.04367794  0.09360712    -0.17200
C2473       C  0.86590527  0.70957268  0.04836751    -0.14300
C2474       C  0.84102543  0.68263746  0.04898923    -0.29400
H2475       H  0.85649267  0.73758167  0.04781996     0.14800
H2476       H  0.85041554  0.65461773  0.04932552     0.15300
C2477       C  0.59136887  0.68220432  0.04715869    -0.14300
C2478       C  0.61542305  0.71002810  0.04671516    -0.29400
H2479       H  0.60153713  0.65452006  0.04805195     0.14800
H2480       H  0.60521469  0.73775186  0.04616269     0.15300
C2481       C  0.48487611  0.69979583  0.98751386    -0.14300
C2482       C  0.47891266  0.67374502  0.99837140    -0.29400
H2483       H  0.98953426  0.73819305  0.99398878     0.14800
H2484       H  0.47484568  0.64581506  0.99458249     0.15300
C2485       C  0.48102982  0.71374192  0.09421470    -0.16300
C2486       C  0.48238365  0.71754906  0.10842388     0.07700
C2487       C  0.48395928  0.72072723  0.12513938     0.09600
C2488       C  0.48486737  0.72265563  0.13942798    -0.17200
C2489       C  0.89091098  0.06332884  0.04750772    -0.14300
C2490       C  0.86628135  0.03615648  0.04664765    -0.29400
H2491       H  0.89359650  0.59859347  0.04920823     0.14800
H2492       H  0.87595738  0.00822893  0.04624349     0.15300
C2493       C  0.61669795  0.03391933  0.04412585    -0.14300
C2494       C  0.64046949  0.06192627  0.04507581    -0.29400
H2495       H  0.63935970  0.51407261  0.04531240     0.14800
H2496       H  0.63001668  0.08949592  0.04604642     0.15300
C2497       C  0.99713496  0.03656794  0.99854445    -0.09500
C2498       C  0.99635995  0.06436978  0.98821686    -0.29400
H2499       H  0.01211232  0.51935471  0.99623976     0.14800
H2500       H  0.48923237  0.00034018  0.99233067     0.15300
C2501       C  0.01761053  0.05081218  0.14051174    -0.16300
C2502       C  0.01656153  0.05483084  0.12628960     0.07700
C2503       C  0.01839656  0.56596303  0.11225918     0.09600
C2504       C  0.01066977  0.05832336  0.09529474    -0.17200
C2505       C  0.78029666  0.74554575  0.48741638    -0.14300
C2506       C  0.80630307  0.74613526  0.49858769    -0.29400
H2507       H  0.75193013  0.74521004  0.49100130     0.14800
H2508       H  0.83465405  0.74656821  0.49503932     0.15300
C2509       C  0.77274009  0.88362278  0.43859122    -0.14300
C2510       C  0.80155451  0.86110364  0.43999585    -0.29400
H2511       H  0.74583545  0.87186186  0.43729982     0.14800
H2512       H  0.82833212  0.87293808  0.44147105     0.15300
C2513       C  0.77561290  0.61091419  0.43965796    -0.14300
C2514       C  0.80408514  0.63373259  0.43833987    -0.29400
H2515       H  0.74852655  0.62247076  0.44085225     0.14800
H2516       H  0.83129931  0.62224790  0.43767817     0.15300
C2517       C  0.77389803  0.99827672  0.48772908    -0.14300
C2518       C  0.80408238  0.99865159  0.49689735    -0.29400
H2519       H  0.83862357  0.49769472  0.49079556     0.14800
H2520       H  0.83073123  0.99869241  0.49136990     0.15300
C2521       C  0.92708698  0.75472431  0.48902671    -0.14300
C2522       C  0.95578606  0.75196912  0.49887294    -0.29400
H2523       H  0.89987916  0.75752492  0.49383718     0.14800
H2524       H  0.50216852  0.74241742  0.49501275     0.15300
C2525       C  0.91998147  0.89172011  0.43898219    -0.14300
C2526       C  0.94812035  0.86813204  0.44060538    -0.29400
H2527       H  0.89262887  0.88115187  0.43773131     0.14800
H2528       H  0.49703430  0.87357633  0.44000099     0.15300
C2529       C  0.95842487  0.61764616  0.44154944    -0.14300
C2530       C  0.93071463  0.64163568  0.43983142    -0.29400
H2531       H  0.98588569  0.62788094  0.44309645     0.14800
H2532       H  0.50724503  0.62089035  0.44068365     0.15300
C2533       C  0.92524200  0.00674375  0.48726621    -0.14300
C2534       C  0.95401042  0.00355175  0.49703065    -0.29400
H2535       H  0.90493116  0.50989672  0.49495999     0.14800
H2536       H  0.40054056  0.99653344  0.49320216     0.15300
C2537       C  0.74428783  0.74553255  0.23677712    -0.11100
C2538       C  0.75049949  0.74882683  0.25079979    -0.12700
C2539       C  0.79858721  0.75521698  0.34563552    -0.16300
C2540       C  0.80450653  0.75431852  0.35976597     0.07700
C2541       C  0.80952805  0.75265157  0.37647296     0.09600
C2542       C  0.81098610  0.75105679  0.39080697    -0.17200
C2543       C  0.79651525  0.89350576  0.29388572    -0.11100
C2544       C  0.79556603  0.86094222  0.29433645    -0.12700
C2545       C  0.75260135  0.64634413  0.30130131    -0.11100
C2546       C  0.75022969  0.61385334  0.30146896    -0.12700
C2547       C  0.77782650  0.01313815  0.24846936    -0.11100
C2548       C  0.77362101  0.01765633  0.23440231    -0.12700
C2549       C  0.78921059  0.99667755  0.34486796    -0.16300
C2550       C  0.78766915  0.99620273  0.35918375     0.07700
C2551       C  0.75279969  0.49687192  0.37907678     0.09600
C2552       C  0.78149636  0.99638121  0.39021502    -0.17200
C2553       C  0.97934947  0.73625841  0.25174439    -0.11100
C2554       C  0.97979070  0.72992195  0.23769773    -0.12700
C2555       C  0.96789485  0.76295981  0.34752480    -0.16300
C2556       C  0.96408511  0.76226557  0.36173231     0.07700
C2557       C  0.49834713  0.74978857  0.37775782     0.09600
C2558       C  0.95364238  0.75785600  0.39241579    -0.17200
C2559       C  0.95772761  0.89402284  0.29383532    -0.11100
C2560       C  0.95921770  0.86146788  0.29409830    -0.12700
C2561       C  0.99045710  0.64601472  0.30493252    -0.11100
C2562       C  0.99325311  0.61364441  0.30500498    -0.12700
C2563       C  0.98079818  0.01251207  0.24919876    -0.11100
C2564       C  0.98870953  0.01659094  0.23537897    -0.12700
C2565       C  0.94051038  0.99872782  0.34443935    -0.16300
C2566       C  0.93832095  0.99910279  0.35875664     0.07700
C2567       C  0.43178710  0.99145258  0.37473433     0.09600
C2568       C  0.93729319  0.00160743  0.38992572    -0.17200
C2569       C  0.74554818  0.70738012  0.84716569    -0.16300
C2570       C  0.74463633  0.70542050  0.86145657     0.07700
C2571       C  0.74340568  0.70386521  0.87822529     0.09600
C2572       C  0.74219337  0.70223023  0.89251794    -0.17200
C2573       C  0.73751456  0.04869148  0.89007781    -0.16300
C2574       C  0.76769293  0.55862648  0.87740545     0.07700
C2575       C  0.73194660  0.04598072  0.85905906     0.09600
C2576       C  0.72974850  0.04270443  0.84482826    -0.17200
C2577       C  0.85672486  0.73834200  0.80147668    -0.11100
C2578       C  0.88916081  0.74038843  0.80138612    -0.12700
C2579       C  0.64147327  0.70032003  0.79671364    -0.11100
C2580       C  0.60898038  0.69856184  0.79671033    -0.12700
C2581       C  0.49786772  0.68661328  0.84545056    -0.16300
C2582       C  0.49582387  0.68110781  0.85958285     0.07700
C2583       C  0.99451138  0.70280378  0.87770711     0.09600
C2584       C  0.49097961  0.67556324  0.89060818    -0.17200
C2585       C  0.90850960  0.53662625  0.79991171    -0.11100
C2586       C  0.87605990  0.53763689  0.79943860    -0.12700
C2587       C  0.62528253  0.52774110  0.79831120    -0.11100
C2588       C  0.65776723  0.52778928  0.79843823    -0.12700
C2589       C  0.98846590  0.03853839  0.89160420    -0.16300
C2590       C  0.01757174  0.53929110  0.87973783     0.07700
C2591       C  0.48716134  0.03899493  0.85948135     0.09600
C2592       C  0.98575821  0.03205605  0.84628929    -0.17200
C2593       C  0.75766086  0.73923167  0.73694448    -0.11100
C2594       C  0.75523036  0.73445295  0.75109402    -0.12700
C2595       C  0.76741178  0.75267169  0.64025720    -0.16300
C2596       C  0.76753969  0.75261424  0.62591216     0.07700
C2597       C  0.76777766  0.75194623  0.60908426     0.09600
C2598       C  0.76931899  0.75113785  0.59475933    -0.17200
C2599       C  0.74624601  0.88947199  0.68917830    -0.11100
C2600       C  0.74697526  0.85692151  0.68975495    -0.12700
C2601       C  0.78658302  0.60847214  0.68714291    -0.11100
C2602       C  0.78199477  0.64066918  0.68707353    -0.12700
C2603       C  0.73408264  0.00653347  0.73467661    -0.11100
C2604       C  0.73182147  0.01072130  0.74887239    -0.12700
C2605       C  0.79158746  0.99822229  0.59443146    -0.16300
C2606       C  0.78558016  0.99754271  0.60854742     0.07700
C2607       C  0.81567740  0.49624528  0.62702380     0.09600
C2608       C  0.76953013  0.99615132  0.63896456    -0.17200
C2609       C  0.49712666  0.74043948  0.73636884    -0.11100
C2610       C  0.49936577  0.73470196  0.75049396    -0.12700
C2611       C  0.95919322  0.76173131  0.64147676    -0.16300
C2612       C  0.95499913  0.76076119  0.62724983     0.07700
C2613       C  0.95094163  0.75936463  0.61051857     0.09600
C2614       C  0.94891068  0.75807760  0.59620952    -0.17200
C2615       C  0.94881143  0.90312873  0.68958089    -0.11100
C2616       C  0.95169659  0.87070085  0.68996859    -0.12700
C2617       C  0.99653858  0.65596342  0.68886666    -0.11100
C2618       C  0.99869963  0.62347012  0.68898865    -0.12700
C2619       C  0.01387515  0.51532932  0.75217532    -0.11100
C2620       C  0.01058295  0.51471037  0.73790836    -0.12700
C2621       C  0.94314471  0.00922340  0.63955876    -0.16300
C2622       C  0.94075863  0.00808512  0.62528102     0.07700
C2623       C  0.96051426  0.50836432  0.61167046     0.09600
C2624       C  0.93935857  0.00579947  0.59419329    -0.17200
loop_ 
_geom_bond_atom_site_label_1 
_geom_bond_atom_site_label_2 
_geom_bond_distance 
_geom_bond_site_symmetry_2 
_ccdc_geom_bond_type 
O1         Cu665   1.985       .  S
O1         C1323   1.273       .  A
O2           Cu9   1.990   1_545  S
O2         C1324   1.273       .  A
O3           Cu9   2.024       .  S
O3          C669   1.279       .  A
O4           Cu9   2.023   1_545  S
O4         C1326   1.279       .  A
O5          Cu10   2.026       .  S
O5          C670   1.279       .  A
O6          Cu10   2.025       .  S
O6         C1325   1.279   1_455  A
O7         Cu666   1.985       .  S
O7           C12   1.273       .  A
O8          Cu10   1.989       .  S
O8           C11   1.274   1_455  A
Cu9         O657   1.989       .  S
Cu9       Cu1978   2.382   1_565  S
Cu10        O663   1.993       .  S
Cu10      Cu1977   2.381   1_455  S
C11        O1313   1.274       .  A
C11        C1959   1.419       .  S
C12        O1314   1.275       .  A
C12        C1962   1.419       .  S
C13         O659   1.278       .  A
C13        O1318   1.278       .  A
C13         C653   1.444       .  S
C14        O1316   1.278       .  A
C14         O661   1.277       .  A
C14        C1964   1.440       .  S
O15         Cu23   1.994       .  S
O15          C25   1.274       .  A
O16         Cu23   1.996       .  S
O16          C26   1.275       .  A
O17         Cu23   2.020       .  S
O17          C27   1.277       .  A
O18         Cu23   2.020       .  S
O18        C1340   1.278       .  A
O19         Cu24   2.017       .  S
O19          C28   1.277   1_455  A
O20         Cu24   2.016   1_655  S
O20        C1339   1.277       .  A
O21         Cu24   1.993       .  S
O21        C1338   1.275   1_455  A
O22         Cu24   1.993       .  S
O22        C1337   1.275   1_455  A
Cu23      Cu1336   2.381       .  S
Cu24      Cu1335   2.382   1_455  S
C25        O1334   1.274       .  A
C25         C649   1.419       .  S
C26        O1333   1.273       .  A
C26         C648   1.422       .  S
C27        O1332   1.279       .  A
C27         C643   1.445       .  S
C28        O1330   1.279       .  A
C28         C641   1.443       .  S
O29         Cu37   2.017       .  S
O29          C39   1.277       .  A
O30         Cu37   2.019       .  S
O30          C40   1.277       .  A
O31        Cu693   1.991   1_545  S
O31          C41   1.275       .  A
O32         Cu37   1.995       .  S
O32          C42   1.275       .  A
O33         Cu38   1.975       .  S
O33          C42   1.272       .  A
O34        Cu694   1.974   1_545  S
O34          C41   1.271       .  A
O35         Cu38   2.033       .  S
O35          C40   1.280       .  A
O36         Cu38   2.033       .  S
O36          C39   1.280       .  A
Cu37        O687   1.993       .  S
Cu37        Cu38   2.382       .  S
Cu38        O690   1.972       .  S
C39         C635   1.447       .  S
C40         C640   1.448       .  S
C41         C633   1.413       .  S
C42         C631   1.415       .  S
O43         Cu51   2.022       .  S
O43          C53   1.279       .  A
O44         Cu51   2.025       .  S
O44          C54   1.279       .  A
O45         Cu51   1.976       .  S
O45          C55   1.272       .  A
O46         Cu51   1.974       .  S
O46          C56   1.271       .  A
O47         Cu52   1.992       .  S
O47          C56   1.275       .  A
O48         Cu52   1.994       .  S
O48          C55   1.275       .  A
O49         Cu52   2.005       .  S
O49          C54   1.275       .  A
O50         Cu52   2.004       .  S
O50          C53   1.275       .  A
Cu51        Cu52   2.383       .  S
C53         C625   1.437       .  S
C54         C627   1.439       .  S
C55         C632   1.415       .  S
C56         C634   1.413       .  S
O57         Cu65   2.012       .  S
O57          C67   1.277       .  A
O58         Cu65   2.012       .  S
O58          C68   1.277       .  A
O59         Cu65   1.988       .  S
O59          C69   1.275       .  A
O60       Cu1377   1.993   1_455  S
O60          C70   1.274       .  A
O61       Cu1378   1.985       .  S
O61         C726   1.273       .  A
O62         Cu66   1.982       .  S
O62         C725   1.273       .  A
O63         Cu66   2.020       .  S
O63         C724   1.278       .  A
O64         Cu66   2.020       .  S
O64         C723   1.278       .  A
Cu65       O1372   1.992       .  S
Cu65       Cu722   2.383   1_545  S
Cu66       O1373   1.984       .  S
Cu66       Cu721   2.382       .  S
C67         O720   1.278   1_545  A
C67        C1280   1.439       .  S
C68         O719   1.278   1_545  A
C68         C651   1.439       .  S
C69         O718   1.273   1_545  A
C69         C617   1.416       .  S
C70         O717   1.274   1_545  A
C70         C619   1.419       .  S
O71       Cu1391   1.985       .  S
O71          C81   1.274       .  A
O72         Cu79   1.998       .  S
O72          C82   1.274       .  A
O73         Cu79   2.027       .  S
O73          C83   1.279       .  A
O74         Cu79   2.027       .  S
O74          C84   1.279       .  A
O75         Cu80   2.013       .  S
O75          C84   1.276       .  A
O76         Cu80   2.012       .  S
O76          C83   1.276       .  A
O77         Cu80   1.995       .  S
O77          C82   1.275       .  A
O78       Cu1392   1.999       .  S
O78          C81   1.275       .  A
Cu79       O1383   1.989   1_455  S
Cu79        Cu80   2.381       .  S
Cu80       O1390   1.994   1_455  S
C81         C610   1.421       .  S
C82         C612   1.424       .  S
C83         C642   1.443       .  S
C84         C613   1.443       .  S
O85         Cu93   1.987       .  S
O85         C751   1.274       .  A
O86         Cu93   1.990       .  S
O86         C752   1.274       .  A
O87         Cu93   2.024       .  S
O87         C753   1.278       .  A
O88         Cu93   2.024       .  S
O88          C98   1.278       .  A
O89         Cu94   2.025       .  S
O89         C754   1.278       .  A
O90         Cu94   2.026       .  S
O90          C97   1.278       .  A
O91         Cu94   1.989       .  S
O91          C96   1.273       .  A
O92         Cu94   1.983       .  S
O92          C95   1.274       .  A
Cu93       Cu750   2.382       .  S
Cu94       Cu749   2.380   1_545  S
C95         O741   1.273   1_545  A
C95         C618   1.416       .  S
C96         O742   1.274   1_545  A
C96         C620   1.419       .  S
C97         O743   1.279   1_545  A
C97        C1292   1.451       .  S
C98         O745   1.278       .  A
C98         C608   1.446       .  S
O99        Cu107   2.016       .  S
O99         C109   1.278       .  A
O100       Cu107   2.018       .  S
O100        C110   1.278       .  A
O101       Cu107   1.989       .  S
O101        C111   1.274       .  A
O102       Cu107   1.990       .  S
O102        C112   1.273       .  A
O103       Cu108   1.995       .  S
O103        C112   1.276       .  A
O104       Cu108   2.002       .  S
O104        C111   1.275       .  A
O105       Cu108   2.012       .  S
O105        C110   1.277       .  A
O106       Cu108   2.009       .  S
O106        C109   1.276       .  A
Cu107      Cu108   2.382       .  S
C109        C626   1.437       .  S
C110        C601   1.439       .  S
C111        C611   1.424       .  S
C112        C609   1.421       .  S
O113       Cu121   1.994       .  S
O113        C123   1.275       .  A
O114       Cu777   1.993   1_545  S
O114        C124   1.275       .  A
O115       Cu121   2.007       .  S
O115        C125   1.275       .  A
O116       Cu121   2.007       .  S
O116        C126   1.275       .  A
O117       Cu122   2.023       .  S
O117       C1438   1.278   1_455  A
O118       Cu122   2.025       .  S
O118       C1437   1.279       .  A
O119       Cu778   1.993       .  S
O119       C1436   1.275       .  A
O120       Cu122   1.998       .  S
O120       C1435   1.275   1_455  A
Cu121       O770   1.990       .  S
Cu121     Cu1434   2.382       .  S
Cu122       O775   1.991       .  S
Cu122     Cu1433   2.381   1_455  S
C123       O1432   1.272       .  A
C123        C591   1.416       .  S
C124       O1431   1.272       .  A
C124        C594   1.414       .  S
C125       O1430   1.280       .  A
C125        C595   1.444       .  S
C126       O1429   1.281       .  A
C126        C597   1.444       .  S
O127       Cu135   1.979       .  S
O127        C137   1.272       .  A
O128       Cu135   1.978       .  S
O128        C138   1.272       .  A
O129       Cu135   2.021       .  S
O129        C139   1.278       .  A
O130       Cu135   2.021       .  S
O130        C140   1.278       .  A
O131       Cu136   2.021       .  S
O131       C1452   1.278   1_455  A
O132       Cu136   2.022   1_655  S
O132       C1451   1.278       .  A
O133       Cu136   1.987   1_655  S
O133       C1450   1.274       .  A
O134       Cu136   1.992       .  S
O134       C1449   1.274   1_455  A
Cu135     Cu1448   2.383       .  S
Cu136     Cu1447   2.381   1_455  S
C137       O1446   1.275       .  A
C137        C592   1.416       .  S
C138       O1445   1.275       .  A
C138        C593   1.414       .  S
C139       O1444   1.277       .  A
C139        C587   1.441       .  S
C140       O1443   1.277       .  A
C140        C585   1.441       .  S
O141       Cu149   1.992       .  S
O141        C151   1.275       .  A
O142       Cu805   1.990   1_545  S
O142        C152   1.275       .  A
O143       Cu149   2.010       .  S
O143        C153   1.276       .  A
O144       Cu149   2.011       .  S
O144        C154   1.276       .  A
O145       Cu150   2.028       .  S
O145        C154   1.279       .  A
O146       Cu150   2.027       .  S
O146        C153   1.279       .  A
O147       Cu806   1.973   1_545  S
O147        C152   1.271       .  A
O148       Cu150   1.976       .  S
O148        C151   1.272       .  A
Cu149       O798   1.986       .  S
Cu149      Cu150   2.383       .  S
Cu150       O803   1.970       .  S
C151        C575   1.414       .  S
C152        C578   1.412       .  S
C153        C579   1.442       .  S
C154        C581   1.443       .  S
O155       Cu163   1.992       .  S
O155        C165   1.275       .  A
O156       Cu163   1.989       .  S
O156        C166   1.275       .  A
O157       Cu163   2.010       .  S
O157        C167   1.276       .  A
O158       Cu163   2.013       .  S
O158        C168   1.276       .  A
O159       Cu164   2.032       .  S
O159        C168   1.280       .  A
O160       Cu164   2.029       .  S
O160        C167   1.279       .  A
O161       Cu164   1.974       .  S
O161        C166   1.271       .  A
O162       Cu164   1.976       .  S
O162        C165   1.272       .  A
Cu163      Cu164   2.382       .  S
C165        C576   1.414       .  S
C166        C577   1.412       .  S
C167        C570   1.443       .  S
C168        C571   1.445       .  S
O169       Cu177   2.012       .  S
O169       C1491   1.279       .  A
O170       Cu177   2.012       .  S
O170       C1492   1.276       .  A
O171       Cu833   2.026       .  S
O171       C1493   1.279       .  A
O172       Cu177   2.045       .  S
O172       C1494   1.282       .  A
O173       Cu178   2.014       .  S
O173        C182   1.276       .  A
O174       Cu834   2.029   1_545  S
O174        C181   1.278       .  A
O175       Cu178   2.046       .  S
O175        C180   1.282       .  A
O176       Cu178   2.052       .  S
O176        C179   1.284       .  A
Cu177       O827   2.043       .  S
Cu177     Cu1490   2.370       .  S
Cu178       O830   2.013       .  S
Cu178     Cu1489   2.369       .  S
C179       O1481   1.273       .  A
C179        C565   1.482       .  S
C180       O1482   1.273       .  A
C180        C600   1.444       .  S
C181       O1483   1.286       .  A
C181        C561   1.503       .  S
C182       O1484   1.287       .  A
C182        C557   1.501       .  S
O183       Cu191   2.018       .  S
O183       C1505   1.277       .  A
O184       Cu191   2.018       .  S
O184       C1506   1.279       .  A
O185       Cu191   2.048       .  S
O185       C1507   1.282       .  A
O186       Cu191   2.042       .  S
O186       C1508   1.282       .  A
O187       Cu192   2.075       .  S
O187        C196   1.287       .  A
O188       Cu192   2.078       .  S
O188        C195   1.287       .  A
O189       Cu192   2.008       .  S
O189        C194   1.275       .  A
O190       Cu192   2.005       .  S
O190        C193   1.275       .  A
Cu191     Cu1504   2.369       .  S
Cu192     Cu1503   2.370       .  S
C193       O1495   1.279       .  A
C193        C590   1.440       .  S
C194       O1496   1.282       .  A
C194        C553   1.483       .  S
C195       O1497   1.277       .  A
C195        C562   1.501       .  S
C196       O1498   1.276       .  A
C196        C558   1.501       .  S
O197       Cu205   2.000       .  S
O197        C207   1.274       .  A
O198       Cu205   2.003       .  S
O198        C208   1.274       .  A
O199       Cu205   2.070       .  S
O199        C209   1.287       .  A
O200       Cu861   2.065       .  S
O200        C210   1.286       .  A
O201       Cu862   2.022   1_545  S
O201        C210   1.277       .  A
O202       Cu206   2.012       .  S
O202        C209   1.276       .  A
O203       Cu206   2.044       .  S
O203        C208   1.284       .  A
O204       Cu206   2.036       .  S
O204        C207   1.280       .  A
Cu205       O856   2.072       .  S
Cu205      Cu206   2.370       .  S
Cu206       O857   2.016       .  S
C207        C584   1.442       .  S
C208        C549   1.486       .  S
C209        C541   1.499       .  S
C210        C545   1.500       .  S
O211       Cu219   2.047       .  S
O211        C221   1.282       .  A
O212       Cu219   2.053       .  S
O212        C222   1.285       .  A
O213       Cu219   2.010       .  S
O213        C223   1.276       .  A
O214       Cu219   2.012       .  S
O214        C224   1.276       .  A
O215       Cu220   2.073       .  S
O215        C224   1.287       .  A
O216       Cu220   2.074       .  S
O216        C223   1.287       .  A
O217       Cu220   1.986       .  S
O217        C222   1.272       .  A
O218       Cu220   1.993       .  S
O218        C221   1.273       .  A
Cu219      Cu220   2.370       .  S
C221        C574   1.444       .  S
C222        C537   1.481       .  S
C223        C546   1.498       .  S
C224        C542   1.499       .  S
O225      Cu1545   2.037       .  S
O225        C235   1.281       .  A
O226       Cu233   2.045       .  S
O226        C236   1.281       .  A
O227       Cu233   2.019       .  S
O227        C237   1.280       .  A
O228       Cu233   2.018       .  S
O228        C238   1.277       .  A
O229       Cu234   2.021       .  S
O229        C894   1.278       .  A
O230       Cu234   2.017       .  S
O230        C893   1.277       .  A
O231       Cu234   2.029       .  S
O231        C892   1.279       .  A
O232      Cu1546   2.036       .  S
O232        C891   1.280       .  A
Cu233      O1537   2.039       .  S
Cu233      Cu890   2.368       .  S
Cu234      O1544   2.029       .  S
Cu234      Cu889   2.370       .  S
C235        O888   1.281       .  A
C235        C525   1.496       .  S
C236        O887   1.280       .  A
C236        C521   1.498       .  S
C237        O886   1.277       .  A
C237        C529   1.483   1_554  S
C238        O885   1.277       .  A
C238        C536   1.443       .  S
O239       Cu247   2.034       .  S
O239        C249   1.280       .  A
O240      Cu1559   2.035       .  S
O240        C250   1.279       .  A
O241      Cu1559   2.014       .  S
O241       C1563   1.276       .  A
O242       Cu247   2.022       .  S
O242        C252   1.278       .  A
O243       Cu248   2.018       .  S
O243        C252   1.277       .  A
O244       Cu248   2.020       .  S
O244        C251   1.280       .  A
O245      Cu1560   2.061       .  S
O245        C250   1.284       .  A
O246       Cu248   2.060       .  S
O246        C249   1.284       .  A
Cu247      O1552   2.033   1_455  S
Cu247      O1553   2.020       .  S
Cu247      Cu248   2.368       .  S
Cu248      O1557   2.063   1_455  S
C249        C509   1.503       .  S
C250        C505   1.503       .  S
C251       O1553   1.278       .  A
C251        C514   1.484   1_554  S
C252        C517   1.444       .  S
O253       Cu261   2.024       .  S
O253        C919   1.278       .  A
O254       Cu261   2.021       .  S
O254        C920   1.278       .  A
O255       Cu261   2.046       .  S
O255        C921   1.282       .  A
O256       Cu261   2.043       .  S
O256        C922   1.282       .  A
O257       Cu262   2.040       .  S
O257        C266   1.281       .  A
O258       Cu262   2.039       .  S
O258        C265   1.281       .  A
O259       Cu262   2.016       .  S
O259        C264   1.277       .  A
O260       Cu262   2.015       .  S
O260        C263   1.278       .  A
Cu261      Cu918   2.370       .  S
Cu262      Cu917   2.368       .  S
C263        O909   1.280       .  A
C263        C497   1.483   1_554  S
C264        O910   1.277       .  A
C264        C504   1.443       .  S
C265        O911   1.281       .  A
C265        C522   1.498       .  S
C266        O912   1.281       .  A
C266        C526   1.497       .  S
O267       Cu275   2.060       .  S
O267        C277   1.284       .  A
O268       Cu275   2.060       .  S
O268        C278   1.284       .  A
O269       Cu275   2.024       .  S
O269        C279   1.278       .  A
O270       Cu275   2.024       .  S
O270        C280   1.280       .  A
O271       Cu276   2.006       .  S
O271        C280   1.276       .  A
O272       Cu276   2.011       .  S
O272        C279   1.276       .  A
O273       Cu276   2.035       .  S
O273        C278   1.280       .  A
O274       Cu276   2.034       .  S
O274        C277   1.280       .  A
Cu275      Cu276   2.370       .  S
C277        C510   1.503       .  S
C278        C506   1.503       .  S
C279        C493   1.442       .  S
C280        C489   1.479   1_554  S
O281       Cu289   1.991       .  S
O281        C291   1.274       .  A
O282      Cu1601   1.989       .  S
O282        C292   1.275       .  A
O283       Cu289   2.021       .  S
O283        C293   1.278       .  A
O284       Cu289   2.020       .  S
O284        C294   1.278       .  A
O285       Cu290   2.016       .  S
O285        C950   1.277       .  A
O286       Cu290   2.017       .  S
O286        C949   1.277       .  A
O287      Cu1602   1.996       .  S
O287        C948   1.275       .  A
O288       Cu290   1.990       .  S
O288        C947   1.274       .  A
Cu289      O1594   1.989       .  S
Cu289      Cu946   2.382       .  S
Cu290      O1599   1.991       .  S
Cu290      Cu945   2.381   1_545  S
C291        O944   1.273       .  A
C291        C485   1.417       .  S
C292        O943   1.273       .  A
C292        C487   1.419       .  S
C293        O942   1.278       .  A
C293        C596   1.444       .  S
C294        O941   1.278       .  A
C294        C533   1.443       .  S
O295      Cu1615   1.989       .  S
O295        C305   1.274       .  A
O296       Cu303   1.992   1_455  S
O296        C306   1.274       .  A
O297       Cu303   2.022       .  S
O297       C1619   1.278       .  A
O298       Cu303   2.021       .  S
O298        C308   1.278       .  A
O299       Cu304   2.021       .  S
O299       C1620   1.278       .  A
O300       Cu304   2.019       .  S
O300        C307   1.278       .  A
O301      Cu1616   1.990   1_455  S
O301        C306   1.275       .  A
O302       Cu304   1.992       .  S
O302        C305   1.274       .  A
Cu303      O1607   1.987       .  S
Cu303     Cu1616   2.381       .  S
Cu304      O1613   1.990       .  S
Cu304     Cu1615   2.382       .  S
C305        C481   1.419       .  S
C306        C483   1.420       .  S
C307       O1609   1.277       .  A
C307        C586   1.441       .  S
C308       O1611   1.278       .  A
C308        C520   1.444       .  S
O309       Cu317   1.988       .  S
O309        C975   1.274       .  A
O310       Cu317   1.992       .  S
O310        C976   1.274       .  A
O311       Cu317   2.014       .  S
O311        C977   1.277       .  A
O312       Cu317   2.018       .  S
O312        C978   1.277       .  A
O313       Cu318   2.014       .  S
O313        C322   1.277       .  A
O314       Cu318   2.014       .  S
O314        C321   1.277       .  A
O315       Cu318   1.987       .  S
O315        C320   1.274       .  A
O316       Cu318   1.986       .  S
O316        C319   1.273       .  A
Cu317      Cu974   2.381   1_545  S
Cu318      Cu973   2.382       .  S
C319        O965   1.274       .  A
C319        C486   1.417       .  S
C320        O966   1.274       .  A
C320        C488   1.419       .  S
C321        O967   1.279       .  A
C321        C580   1.442       .  S
C322        O968   1.279       .  A
C322        C501   1.443       .  S
O323       Cu331   1.994       .  S
O323        C333   1.274       .  A
O324       Cu331   1.990       .  S
O324        C334   1.274       .  A
O325       Cu331   2.020       .  S
O325        C335   1.278       .  A
O326       Cu331   2.020       .  S
O326        C336   1.278       .  A
O327       Cu332   2.018       .  S
O327        C336   1.278       .  A
O328       Cu332   2.019       .  S
O328        C335   1.278       .  A
O329       Cu332   1.991       .  S
O329        C334   1.274       .  A
O330       Cu332   1.989       .  S
O330        C333   1.274       .  A
Cu331      Cu332   2.381       .  S
C333        C484   1.420       .  S
C334        C482   1.419       .  S
C335        C569   1.443       .  S
C336        C496   1.442       .  S
O337       Cu345   2.022       .  S
O337       C1003   1.280       .  A
O338       Cu345   2.022       .  S
O338       C1004   1.278       .  A
O339       Cu345   2.033       .  S
O339       C1005   1.280       .  A
O340      Cu1657   2.051   1_455  S
O340       C1006   1.283       .  A
O341      Cu1658   2.032       .  S
O341        C350   1.281       .  A
O342       Cu346   2.050       .  S
O342        C349   1.282       .  A
O343       Cu346   2.012       .  S
O343        C348   1.276       .  A
O344       Cu346   2.008       .  S
O344        C347   1.277       .  A
Cu345      O1652   2.034       .  S
Cu345     Cu1002   2.371       .  S
Cu346      O1653   2.048       .  S
Cu346     Cu1001   2.368       .  S
C347        O993   1.280       .  A
C347        C530   1.481       .  S
C348        O994   1.278       .  A
C348        C621   1.443       .  S
C349        O995   1.278       .  A
C349        C473   1.496       .  S
C350        O996   1.281       .  A
C350        C477   1.496       .  S
O351      Cu1671   2.063       .  S
O351        C361   1.285       .  A
O352       Cu359   2.046       .  S
O352        C362   1.283       .  A
O353       Cu359   2.002       .  S
O353        C363   1.274       .  A
O354       Cu359   2.002       .  S
O354        C364   1.275       .  A
O355       Cu360   2.037       .  S
O355        C364   1.282       .  A
O356       Cu360   2.036       .  S
O356        C363   1.280       .  A
O357       Cu360   2.037       .  S
O357        C362   1.280       .  A
O358      Cu1672   2.020       .  S
O358        C361   1.277       .  A
Cu359      O1663   2.045   1_455  S
Cu359      Cu360   2.370       .  S
Cu360      O1670   2.039   1_455  S
C361        C465   1.499       .  S
C362        C470   1.500       .  S
C363        C616   1.443       .  S
C364        C513   1.481       .  S
O365       Cu373   2.035       .  S
O365        C375   1.281       .  A
O366       Cu373   2.033       .  S
O366        C376   1.280       .  A
O367       Cu373   2.023       .  S
O367        C377   1.280       .  A
O368       Cu373   2.024       .  S
O368        C378   1.278       .  A
O369       Cu374   2.041       .  S
O369       C1034   1.281       .  A
O370       Cu374   2.040       .  S
O370       C1033   1.282       .  A
O371       Cu374   2.038       .  S
O371       C1032   1.281       .  A
O372       Cu374   2.037       .  S
O372       C1031   1.280       .  A
Cu373     Cu1030   2.370       .  S
Cu374     Cu1029   2.370       .  S
C375       O1028   1.282       .  A
C375        C478   1.498       .  S
C376       O1027   1.282       .  A
C376        C474   1.497       .  S
C377       O1026   1.278       .  A
C377        C498   1.483       .  S
C378       O1025   1.277       .  A
C378        C605   1.446       .  S
O379       Cu387   2.008       .  S
O379        C389   1.276       .  A
O380       Cu387   2.008       .  S
O380        C390   1.276       .  A
O381       Cu387   2.064       .  S
O381        C391   1.285       .  A
O382       Cu387   2.063       .  S
O382        C392   1.285       .  A
O383       Cu388   2.022       .  S
O383        C392   1.278       .  A
O384       Cu388   2.018       .  S
O384        C391   1.278       .  A
O385       Cu388   2.022       .  S
O385        C390   1.280       .  A
O386       Cu388   2.020       .  S
O386        C389   1.278       .  A
Cu387      Cu388   2.371       .  S
C389        C604   1.439       .  S
C390        C490   1.480       .  S
C391        C469   1.497       .  S
C392        C466   1.499       .  S
O393      Cu1057   2.053   1_545  S
O393        C403   1.283       .  A
O394       Cu401   2.041       .  S
O394        C404   1.281       .  A
O395       Cu401   2.017       .  S
O395        C405   1.277       .  A
O396       Cu401   2.016       .  S
O396        C406   1.277       .  A
O397       Cu402   2.002       .  S
O397       C1718   1.276       .  A
O398       Cu402   2.006       .  S
O398       C1717   1.275       .  A
O399       Cu402   2.050       .  S
O399       C1716   1.283       .  A
O400      Cu1058   2.032       .  S
O400       C1715   1.280       .  A
Cu401      O1049   2.045       .  S
Cu401     Cu1714   2.370       .  S
Cu402      O1056   2.047       .  S
Cu402     Cu1713   2.370       .  S
C403       O1712   1.279       .  A
C403        C461   1.497       .  S
C404       O1711   1.280       .  A
C404        C457   1.497       .  S
C405       O1710   1.278       .  A
C405        C656   1.444       .  S
C406       O1709   1.281       .  A
C406        C566   1.486       .  S
O407       Cu415   2.035       .  S
O407        C417   1.280       .  A
O408       Cu415   2.035       .  S
O408        C418   1.280       .  A
O409       Cu415   2.039       .  S
O409        C419   1.282       .  A
O410       Cu415   2.036       .  S
O410        C420   1.280       .  A
O411       Cu416   2.013       .  S
O411       C1732   1.276       .  A
O412       Cu416   2.011       .  S
O412       C1731   1.277       .  A
O413       Cu416   2.038       .  S
O413       C1730   1.281       .  A
O414       Cu416   2.040       .  S
O414       C1729   1.281       .  A
Cu415     Cu1728   2.371       .  S
Cu416     Cu1727   2.371       .  S
C417       O1726   1.283       .  A
C417        C462   1.498       .  S
C418       O1725   1.282       .  A
C418        C458   1.497       .  S
C419       O1724   1.274       .  A
C419        C554   1.480       .  S
C420       O1723   1.275       .  A
C420        C646   1.444       .  S
O421       Cu429   2.073       .  S
O421        C431   1.287       .  A
O422      Cu1085   2.076   1_545  S
O422        C432   1.287       .  A
O423       Cu429   1.992       .  S
O423        C433   1.273       .  A
O424       Cu429   1.999       .  S
O424        C434   1.273       .  A
O425       Cu430   2.049       .  S
O425        C434   1.282       .  A
O426       Cu430   2.055       .  S
O426        C433   1.285       .  A
O427      Cu1086   2.007   1_545  S
O427        C432   1.275       .  A
O428       Cu430   2.009       .  S
O428        C431   1.275       .  A
Cu429      O1078   2.073       .  S
Cu429      Cu430   2.369       .  S
Cu430      O1083   2.010       .  S
C431        C450   1.497       .  S
C432        C453   1.498       .  S
C433        C550   1.485       .  S
C434        C637   1.447       .  S
O435       Cu443   1.995       .  S
O435        C445   1.273       .  A
O436       Cu443   2.000       .  S
O436        C446   1.274       .  A
O437       Cu443   2.069       .  S
O437        C447   1.287       .  A
O438       Cu443   2.070       .  S
O438        C448   1.287       .  A
O439       Cu444   2.014       .  S
O439        C448   1.276       .  A
O440       Cu444   2.012       .  S
O440        C447   1.276       .  A
O441       Cu444   2.039       .  S
O441        C446   1.284       .  A
O442       Cu444   2.032       .  S
O442        C445   1.280       .  A
Cu443      Cu444   2.371       .  S
C445        C630   1.439       .  S
C446        C538   1.484       .  S
C447        C449   1.498       .  S
C448        C454   1.499       .  S
C449        C450   1.346       .  D
C449        H451   1.087       .  S
C450        H452   1.087       .  S
C453        C454   1.346       .  D
C453        H455   1.086       .  S
C454        H456   1.086       .  S
C457        C458   1.354       .  D
C457       H1771   1.086       .  S
C458        H460   1.086       .  S
H459       C1769   1.086       .  S
C461        C462   1.351       .  D
C461       H1775   1.086       .  S
C462        H464   1.086       .  S
H463       C1773   1.086       .  S
C465        C466   1.349       .  D
C465        H467   1.087       .  S
C466        H468   1.087       .  S
C469        C470   1.351       .  D
C469        H471   1.087       .  S
C470        H472   1.086       .  S
C473        C474   1.351       .  D
C473        H475   1.086       .  S
C474       H1132   1.086       .  S
H476       C1130   1.086   1_565  S
C477        C478   1.353       .  D
C477        H479   1.086       .  S
C478       H1136   1.086       .  S
H480       C1134   1.086       .  S
C481        C482   1.197       .  T
C483        C484   1.197       .  T
C485        C486   1.195       .  T
C487        C488   1.196       .  T
C489        C490   1.344       .  D
C489        H491   1.087       .  S
C490        H492   1.087       .  S
C493        C494   1.210       .  T
C494        C495   1.419       .  S
C495        C496   1.210       .  T
C497        C498   1.347       .  D
C497       H1155   1.086       .  S
C498        H500   1.087       .  S
H499       C1153   1.087       .  S
C501        C502   1.210       .  T
C502       C1159   1.419       .  S
C503       C1160   1.211       .  T
C503       C1158   1.421       .  S
C504       C1159   1.210       .  T
C505        C506   1.353       .  D
C505        H507   1.086       .  S
C506        H508   1.086       .  S
C509        C510   1.353       .  D
C509        H511   1.086       .  S
C510        H512   1.086       .  S
C513        C514   1.344       .  D
C513       H1827   1.088       .  S
C514        H516   1.086       .  S
H515       C1825   1.086       .  S
C517        C518   1.211       .  T
C518        C519   1.420   1_455  S
C519        C520   1.211       .  T
C521        C522   1.353       .  D
C521       H1179   1.086       .  S
C522        H524   1.086       .  S
H523       C1177   1.086       .  S
C525        C526   1.353       .  D
C525       H1183   1.086       .  S
C526        H528   1.086       .  S
H527       C1181   1.086       .  S
C529        C530   1.345       .  D
C529       H1187   1.086       .  S
C530       H1844   1.086       .  S
H531       C1185   1.083       .  S
H532       C1842   1.086       .  S
C533        C534   1.210       .  T
C534       C1191   1.419       .  S
C535       C1192   1.210       .  T
C535       C1190   1.420       .  S
C536       C1191   1.210       .  T
C537        C538   1.340       .  D
C537        H539   1.087       .  S
C538        H540   1.086       .  S
C541        C542   1.347       .  D
C541        H543   1.086       .  S
C542        H544   1.087       .  S
C545        C546   1.348       .  D
C545        H547   1.086       .  S
C546        H548   1.086       .  S
C549        C550   1.341       .  D
C549       H1207   1.085       .  S
C550        H552   1.087       .  S
H551       C1205   1.075   1_545  S
C553        C554   1.342       .  D
C553        H555   1.086       .  S
C554       H1868   1.087       .  S
H556       C1866   1.086       .  S
C557        C558   1.348       .  D
C557        H559   1.087       .  S
C558       H1872   1.086       .  S
H560       C1870   1.086       .  S
C561        C562   1.350       .  D
C561        H563   1.086       .  S
C562       H1876   1.086       .  S
H564       C1874   1.085       .  S
C565        C566   1.343       .  D
C565       H1223   1.087       .  S
C566       H1880   1.084       .  S
H567       C1221   1.083       .  S
H568       C1878   1.087       .  S
C569        C570   1.210       .  T
C571        C572   1.212       .  T
C572        C573   1.422       .  S
C573        C574   1.212       .  T
C575        C576   1.194       .  T
C577        C578   1.193       .  T
C579        C580   1.210       .  T
C581        C582   1.210       .  T
C582       C1239   1.420       .  S
C583       C1240   1.210       .  T
C583       C1238   1.419       .  S
C584       C1239   1.210       .  T
C585        C586   1.209       .  T
C587        C588   1.209       .  T
C588       C1901   1.417       .  S
C589       C1902   1.211       .  T
C589       C1900   1.420       .  S
C590       C1901   1.209       .  T
C591        C592   1.194       .  T
C593        C594   1.194       .  T
C595        C596   1.211       .  T
C597        C598   1.211       .  T
C598       C1911   1.421       .  S
C599       C1912   1.210       .  T
C599       C1910   1.420       .  S
C600       C1911   1.211       .  T
C601        C602   1.208       .  T
C602        C603   1.416       .  S
C603        C604   1.208       .  T
C605       C1262   1.212       .  T
C606       C1261   1.214       .  T
C606       C1263   1.425       .  S
C607        C608   1.212       .  T
C607       C1262   1.422       .  S
C609        C610   1.197       .  T
C611        C612   1.199       .  T
C613        C614   1.211       .  T
C614       C1927   1.420       .  S
C615       C1928   1.213       .  T
C615       C1926   1.424       .  S
C616       C1927   1.210       .  T
C617        C618   1.194       .  T
C619        C620   1.196       .  T
C621       C1278   1.211       .  T
C622       C1277   1.208       .  T
C622       C2591   1.416       .  S
C623       C1936   1.210       .  T
C623       C2590   1.419       .  S
C624        C723   1.444       .  S
C624       C1935   1.211       .  T
C625        C626   1.207       .  T
C627        C628   1.208       .  T
C628        C629   1.416       .  S
C629        C630   1.208       .  T
C631        C632   1.194       .  T
C633        C634   1.193       .  T
C635        C636   1.213       .  T
C636        C753   1.447       .  S
C637        C638   1.213       .  T
C638       C1295   1.425       .  S
C639       C1296   1.215       .  T
C639       C1294   1.427       .  S
C640       C1295   1.214       .  T
C641        C642   1.211   1_655  T
C643        C644   1.211       .  T
C644        C645   1.421       .  S
C645        C646   1.211       .  T
C647       C1323   1.422       .  S
C647        C648   1.198       .  T
C649        C650   1.196       .  T
C650       C1324   1.419       .  S
C651        C652   1.208       .  T
C652       C1326   1.439       .  S
C653        C654   1.211       .  T
C654       C1311   1.420       .  S
C655       C1312   1.209       .  T
C655       C1310   1.418       .  S
C656       C1311   1.211       .  T
O657       C1979   1.274       .  A
O658       Cu665   1.982       .  S
O658       C1980   1.273       .  A
O659       Cu665   2.020       .  S
O660       Cu665   2.019       .  S
O660       C1982   1.278       .  A
O661       Cu666   2.015       .  S
O662       Cu666   2.016       .  S
O662       C1981   1.277       .  A
O663        C668   1.274   1_455  A
O664       Cu666   1.985   1_565  S
O664        C667   1.274       .  A
Cu665     Cu1322   2.381       .  S
Cu666     Cu1321   2.382       .  S
C667       O1969   1.275       .  A
C667       C2615   1.420       .  S
C668       O1970   1.275       .  A
C668       C2618   1.420       .  S
C669       O1974   1.276       .  A
C669       C1309   1.441       .  S
C670       O1972   1.277   1_455  A
C670       C2620   1.444       .  S
O671       Cu679   1.994       .  S
O671        C681   1.275       .  A
O672       Cu679   1.997       .  S
O672        C682   1.275       .  A
O673       Cu679   2.017       .  S
O673        C683   1.277       .  A
O674       Cu679   2.017       .  S
O674       C1996   1.277       .  A
O675       Cu680   2.026       .  S
O675        C684   1.278   1_455  A
O676       Cu680   2.024   1_655  S
O676       C1995   1.279       .  A
O677       Cu680   1.992   1_655  S
O677       C1994   1.275       .  A
O678       Cu680   1.995       .  S
O678       C1993   1.274   1_455  A
Cu679     Cu1992   2.380       .  S
Cu680     Cu1991   2.381   1_455  S
C681       O1990   1.272       .  A
C681       C1305   1.418       .  S
C682       O1989   1.273       .  A
C682       C1304   1.420       .  S
C683       O1988   1.280       .  A
C683       C1299   1.448       .  S
C684       O1986   1.278       .  A
C684       C1297   1.446       .  S
O685       Cu693   2.018       .  S
O685        C695   1.277       .  A
O686       Cu693   2.019       .  S
O686        C696   1.277       .  A
O687        C697   1.275       .  A
O688       Cu693   1.994       .  S
O688        C698   1.275       .  A
O689       Cu694   1.978       .  S
O689        C698   1.272       .  A
O690        C697   1.271       .  A
O691       Cu694   2.039       .  S
O691        C696   1.281       .  A
O692       Cu694   2.040       .  S
O692        C695   1.281       .  A
Cu693      Cu694   2.381       .  S
C695       C1291   1.450       .  S
C696       C1296   1.451       .  S
C697       C1289   1.413       .  S
C698       C1287   1.416       .  S
O699       Cu707   2.035       .  S
O699        C709   1.281       .  A
O700       Cu707   2.036       .  S
O700        C710   1.281       .  A
O701       Cu707   1.974       .  S
O701        C711   1.272       .  A
O702       Cu707   1.974       .  S
O702        C712   1.271       .  A
O703       Cu708   1.993       .  S
O703        C712   1.275       .  A
O704       Cu708   1.996       .  S
O704        C711   1.275       .  A
O705       Cu708   2.010       .  S
O705        C710   1.276       .  A
O706       Cu708   2.012       .  S
O706        C709   1.276       .  A
Cu707      Cu708   2.382       .  S
C709       C1281   1.446       .  S
C710       C1283   1.445       .  S
C711       C1288   1.415       .  S
C712       C1290   1.414       .  S
O713       Cu721   2.022       .  S
O713        C723   1.278       .  A
O714       Cu721   2.022       .  S
O714        C724   1.278       .  A
O715       Cu721   1.988       .  S
O715        C725   1.274       .  A
O716      Cu2033   1.987       .  S
O716        C726   1.274       .  A
O717      Cu2034   1.987   1_455  S
O718       Cu722   1.985       .  S
O719       Cu722   2.018       .  S
O720       Cu722   2.018       .  S
Cu721      O2028   1.988       .  S
Cu722      O2029   1.984   1_565  S
C724       C1307   1.444       .  S
C725       C1273   1.415       .  S
C726       C1275   1.416       .  S
O727      Cu2047   1.983       .  S
O727        C737   1.273       .  A
O728       Cu735   1.989   1_455  S
O728        C738   1.273       .  A
O729       Cu735   2.031       .  S
O729        C739   1.280       .  A
O730       Cu735   2.031   1_455  S
O730        C740   1.280       .  A
O731       Cu736   2.017       .  S
O731        C740   1.277   1_655  A
O732       Cu736   2.015       .  S
O732        C739   1.277       .  A
O733       Cu736   1.994   1_455  S
O733        C738   1.275       .  A
O734      Cu2048   1.994       .  S
O734        C737   1.275       .  A
Cu735      O2039   1.985       .  S
Cu735      Cu736   2.381       .  S
Cu736      O2046   1.990       .  S
C737       C1266   1.418       .  S
C738       C1268   1.421       .  S
C739       C1298   1.446       .  S
C740       C1269   1.447   1_455  S
O741       Cu749   1.989       .  S
O742       Cu749   1.990       .  S
O743       Cu749   2.033       .  S
O744       Cu749   2.030       .  S
O744        C754   1.279   1_565  A
O745       Cu750   2.024       .  S
O746       Cu750   2.025       .  S
O746        C753   1.279       .  A
O747       Cu750   1.981       .  S
O747        C752   1.273       .  A
O748       Cu750   1.983       .  S
O748        C751   1.273       .  A
C751       C1274   1.415       .  S
C752       C1276   1.416       .  S
C754       C1264   1.449       .  S
O755       Cu763   2.028       .  S
O755        C765   1.279       .  A
O756       Cu763   2.028       .  S
O756        C766   1.279       .  A
O757       Cu763   1.986       .  S
O757        C767   1.273       .  A
O758       Cu763   1.982       .  S
O758        C768   1.273       .  A
O759       Cu764   1.994       .  S
O759        C768   1.275       .  A
O760       Cu764   1.997       .  S
O760        C767   1.275       .  A
O761       Cu764   2.019       .  S
O761        C766   1.277       .  A
O762       Cu764   2.019       .  S
O762        C765   1.277       .  A
Cu763      Cu764   2.381       .  S
C765       C1282   1.446       .  S
C766       C1257   1.446       .  S
C767       C1267   1.421       .  S
C768       C1265   1.417       .  S
O769       Cu777   1.994       .  S
O769        C779   1.275       .  A
O770        C780   1.275       .  A
O771       Cu777   2.016       .  S
O771        C781   1.277       .  A
O772       Cu777   2.019       .  S
O772        C782   1.277       .  A
O773       Cu778   2.010   1_565  S
O773       C2094   1.276       .  A
O774       Cu778   2.011       .  S
O774       C2093   1.276       .  A
O775       C2092   1.274   1_455  A
O776       Cu778   1.995   1_565  S
O776       C2091   1.275       .  A
Cu777     Cu2090   2.382       .  S
Cu778     Cu2089   2.381       .  S
C779       O2088   1.272       .  A
C779       C1247   1.415       .  S
C780       O2087   1.271       .  A
C780       C1250   1.413       .  S
C781       O2086   1.279       .  A
C781       C1251   1.445       .  S
C782       O2085   1.280       .  A
C782       C1253   1.447       .  S
O783       Cu791   1.978       .  S
O783        C793   1.272       .  A
O784       Cu791   1.973       .  S
O784        C794   1.272       .  A
O785       Cu791   2.019       .  S
O785        C795   1.278       .  A
O786       Cu791   2.019       .  S
O786        C796   1.278       .  A
O787       Cu792   2.024       .  S
O787       C2108   1.279   1_455  A
O788       Cu792   2.024       .  S
O788       C2107   1.279   1_455  A
O789       Cu792   1.982       .  S
O789       C2106   1.272   1_455  A
O790       Cu792   1.988   1_655  S
O790       C2105   1.274       .  A
Cu791     Cu2104   2.383       .  S
Cu792     Cu2103   2.382   1_455  S
C793       O2102   1.275       .  A
C793       C1248   1.415       .  S
C794       O2101   1.274       .  A
C794       C1249   1.412       .  S
C795       O2100   1.277       .  A
C795       C1243   1.442       .  S
C796       O2099   1.277       .  A
C796       C1241   1.441       .  S
O797       Cu805   1.991       .  S
O797        C807   1.275       .  A
O798        C808   1.274       .  A
O799       Cu805   2.010       .  S
O799        C809   1.276       .  A
O800       Cu805   2.012       .  S
O800        C810   1.276       .  A
O801       Cu806   2.025       .  S
O801        C810   1.279       .  A
O802       Cu806   2.025       .  S
O802        C809   1.279       .  A
O803        C808   1.271       .  A
O804       Cu806   1.975       .  S
O804        C807   1.272       .  A
Cu805      Cu806   2.383       .  S
C807       C1231   1.413       .  S
C808       C1234   1.409       .  S
C809       C1235   1.441   1_565  S
C810       C1237   1.442       .  S
O811       Cu819   1.990       .  S
O811        C821   1.275       .  A
O812       Cu819   1.986       .  S
O812        C822   1.274       .  A
O813       Cu819   2.022       .  S
O813        C823   1.278       .  A
O814       Cu819   2.021       .  S
O814        C824   1.277       .  A
O815       Cu820   2.031       .  S
O815        C824   1.280       .  A
O816       Cu820   2.033       .  S
O816        C823   1.280       .  A
O817       Cu820   1.969       .  S
O817        C822   1.271       .  A
O818       Cu820   1.974       .  S
O818        C821   1.271       .  A
Cu819      Cu820   2.382       .  S
C821       C1232   1.413       .  S
C822       C1233   1.409       .  S
C823       C1226   1.449       .  S
C824       C1227   1.448       .  S
O825       Cu833   2.027       .  S
O825       C2147   1.281       .  A
O826       Cu833   2.031   1_565  S
O826       C2148   1.279   1_565  A
O827       C2149   1.282       .  A
O828       Cu833   2.027   1_565  S
O828       C2150   1.279       .  A
O829       Cu834   2.025       .  S
O829        C838   1.278       .  A
O830        C837   1.276       .  A
O831       Cu834   2.044       .  S
O831        C836   1.281       .  A
O832       Cu834   2.049       .  S
O832        C835   1.284       .  A
Cu833     Cu2146   2.370       .  S
Cu834     Cu2145   2.369       .  S
C835       O2137   1.274       .  A
C835       C1221   1.485       .  S
C836       O2138   1.274       .  A
C836       C1256   1.446       .  S
C837       O2139   1.287       .  A
C837       C1217   1.501       .  S
C838       O2140   1.285       .  A
C838       C1213   1.500       .  S
O839       Cu847   2.010       .  S
O839       C2161   1.276       .  A
O840       Cu847   2.010       .  S
O840       C2162   1.278       .  A
O841       Cu847   2.046       .  S
O841       C2163   1.281       .  A
O842       Cu847   2.040       .  S
O842       C2164   1.282       .  A
O843       Cu848   2.058       .  S
O843        C852   1.284       .  A
O844       Cu848   2.060       .  S
O844        C851   1.285       .  A
O845       Cu848   2.014       .  S
O845        C850   1.276       .  A
O846       Cu848   2.011       .  S
O846        C849   1.276       .  A
Cu847     Cu2160   2.370       .  S
Cu848     Cu2159   2.370       .  S
C849       O2151   1.278       .  A
C849       C1246   1.442       .  S
C850       O2152   1.282       .  A
C850       C1209   1.487       .  S
C851       O2153   1.279       .  A
C851       C1218   1.503       .  S
C852       O2154   1.279       .  A
C852       C1214   1.500       .  S
O853       Cu861   2.002       .  S
O853        C863   1.274   1_545  A
O854       Cu861   2.005       .  S
O854        C864   1.275   1_545  A
O855       Cu861   2.066   1_565  S
O855        C865   1.286       .  A
O856        C866   1.286       .  A
O857        C866   1.277       .  A
O858       Cu862   2.018       .  S
O858        C865   1.277       .  A
O859       Cu862   2.041       .  S
O859        C864   1.283       .  A
O860       Cu862   2.033       .  S
O860        C863   1.280       .  A
Cu861      Cu862   2.370   1_545  S
C863       C1240   1.442       .  S
C864       C1205   1.487       .  S
C865       C1197   1.499       .  S
C866       C1201   1.500       .  S
O867       Cu875   2.049       .  S
O867        C877   1.282       .  A
O868       Cu875   2.056       .  S
O868        C878   1.285       .  A
O869       Cu875   2.019       .  S
O869        C879   1.277       .  A
O870       Cu875   2.020       .  S
O870        C880   1.277       .  A
O871       Cu876   2.067       .  S
O871        C880   1.286       .  A
O872       Cu876   2.068       .  S
O872        C879   1.286       .  A
O873       Cu876   1.995       .  S
O873        C878   1.273       .  A
O874       Cu876   1.999       .  S
O874        C877   1.273       .  A
Cu875      Cu876   2.369       .  S
C877       C1230   1.447       .  S
C878       C1193   1.486       .  S
C879       C1202   1.500       .  S
C880       C1198   1.499       .  S
O881      Cu2201   2.042       .  S
O881        C891   1.282       .  A
O882       Cu889   2.050       .  S
O882        C892   1.282       .  A
O883       Cu889   2.013       .  S
O883        C893   1.278       .  A
O884       Cu889   2.016       .  S
O884        C894   1.277       .  A
O885       Cu890   2.019       .  S
O886       Cu890   2.018       .  S
O887       Cu890   2.036       .  S
O888      Cu2202   2.040       .  S
Cu889      O2193   2.046       .  S
Cu890      O2200   2.036       .  S
C891       C1181   1.496       .  S
C892       C1177   1.497       .  S
C893       C1185   1.480   1_554  S
C894       C1192   1.443       .  S
O895       Cu903   2.044   1_455  S
O895        C905   1.282       .  A
O896      Cu2215   2.045       .  S
O896        C906   1.282       .  A
O897      Cu2215   2.015       .  S
O897       C2219   1.276       .  A
O898       Cu903   2.006       .  S
O898        C908   1.275       .  A
O899       Cu904   2.029       .  S
O899        C908   1.279       .  A
O900       Cu904   2.032       .  S
O900        C907   1.282       .  A
O901      Cu2216   2.034       .  S
O901        C906   1.280       .  A
O902       Cu904   2.031   1_455  S
O902        C905   1.279       .  A
Cu903      O2208   2.049       .  S
Cu903      O2209   2.007       .  S
Cu903      Cu904   2.367       .  S
Cu904      O2213   2.032       .  S
C905       C1165   1.496       .  S
C906       C1161   1.497       .  S
C907       O2209   1.275       .  A
C907       C1170   1.483   1_554  S
C908       C1173   1.442       .  S
O909       Cu917   2.023       .  S
O910       Cu917   2.023       .  S
O911       Cu917   2.042       .  S
O912       Cu917   2.038       .  S
O913       Cu918   2.034       .  S
O913        C922   1.280       .  A
O914       Cu918   2.035       .  S
O914        C921   1.280       .  A
O915       Cu918   2.020       .  S
O915        C920   1.278       .  A
O916       Cu918   2.023       .  S
O916        C919   1.280       .  A
C919       C1153   1.487   1_554  S
C920       C1160   1.444       .  S
C921       C1178   1.498       .  S
C922       C1182   1.497       .  S
O923       Cu931   2.033       .  S
O923        C933   1.279       .  A
O924       Cu931   2.027       .  S
O924        C934   1.278       .  A
O925       Cu931   2.038       .  S
O925        C935   1.280       .  A
O926       Cu931   2.041       .  S
O926        C936   1.283       .  A
O927       Cu932   2.005       .  S
O927        C936   1.275       .  A
O928       Cu932   2.011       .  S
O928        C935   1.276       .  A
O929       Cu932   2.050       .  S
O929        C934   1.283       .  A
O930       Cu932   2.045       .  S
O930        C933   1.283       .  A
Cu931      Cu932   2.368       .  S
C933       C1166   1.496       .  S
C934       C1162   1.496       .  S
C935       C1149   1.447       .  S
C936       C1145   1.485       .  S
O937       Cu945   1.990       .  S
O937        C947   1.274   1_565  A
O938      Cu2257   1.992   1_565  S
O938        C948   1.274   1_565  A
O939       Cu945   2.025       .  S
O939        C949   1.279   1_565  A
O940       Cu945   2.025       .  S
O940        C950   1.279   1_565  A
O941       Cu946   2.020       .  S
O942       Cu946   2.021       .  S
O943      Cu2258   1.990       .  S
O944       Cu946   1.984       .  S
Cu945      O2250   1.990       .  S
Cu946      O2255   1.982       .  S
C947       C1141   1.419       .  S
C948       C1143   1.422       .  S
C949       C1252   1.445       .  S
C950       C1189   1.443       .  S
O951      Cu2271   1.985       .  S
O951        C961   1.273       .  A
O952       Cu959   1.983   1_455  S
O952        C962   1.273       .  A
O953       Cu959   2.028       .  S
O953       C2275   1.280       .  A
O954       Cu959   2.029       .  S
O954        C964   1.280       .  A
O955       Cu960   2.016       .  S
O955       C2276   1.277       .  A
O956       Cu960   2.014       .  S
O956        C963   1.277       .  A
O957      Cu2272   1.994   1_455  S
O957        C962   1.275       .  A
O958       Cu960   1.993       .  S
O958        C961   1.275       .  A
Cu959      O2263   1.985       .  S
Cu959     Cu2272   2.382       .  S
Cu960      O2269   1.998       .  S
Cu960     Cu2271   2.382       .  S
C961       C1137   1.418       .  S
C962       C1139   1.418       .  S
C963       O2265   1.278       .  A
C963       C1242   1.441       .  S
C964       O2267   1.276       .  A
C964       C1176   1.441       .  S
O965       Cu973   1.988       .  S
O966       Cu973   1.993       .  S
O967       Cu973   2.023       .  S
O968       Cu973   2.026       .  S
O969       Cu974   2.024       .  S
O969        C978   1.278   1_565  A
O970       Cu974   2.021       .  S
O970        C977   1.278   1_565  A
O971       Cu974   1.995       .  S
O971        C976   1.275   1_565  A
O972       Cu974   1.992       .  S
O972        C975   1.274   1_565  A
C975       C1142   1.419       .  S
C976       C1144   1.422       .  S
C977       C1236   1.441       .  S
C978       C1157   1.444       .  S
O979       Cu987   1.994       .  S
O979        C989   1.275       .  A
O980       Cu987   1.994       .  S
O980        C990   1.274       .  A
O981       Cu987   2.027       .  S
O981        C991   1.279       .  A
O982       Cu987   2.027       .  S
O982        C992   1.278       .  A
O983       Cu988   2.025       .  S
O983        C992   1.279       .  A
O984       Cu988   2.027       .  S
O984        C991   1.279       .  A
O985       Cu988   1.981       .  S
O985        C990   1.273       .  A
O986       Cu988   1.984       .  S
O986        C989   1.273       .  A
Cu987      Cu988   2.381       .  S
C989       C1140   1.418       .  S
C990       C1138   1.418       .  S
C991       C1225   1.449       .  S
C992       C1152   1.448       .  S
O993      Cu1001   2.028       .  S
O994      Cu1001   2.027       .  S
O995      Cu1001   2.027       .  S
O996      Cu2313   2.046       .  S
O997      Cu2314   2.026   1_455  S
O997       C1006   1.279       .  A
O998      Cu1002   2.048       .  S
O998       C1005   1.282       .  A
O999      Cu1002   2.006       .  S
O999       C1004   1.275       .  A
O1000     Cu1002   2.008       .  S
O1000      C1003   1.276       .  A
Cu1001     O2308   2.032       .  S
Cu1002     O2309   2.046       .  S
C1003      C1186   1.480       .  S
C1004      C1277   1.439       .  S
C1005      C1129   1.497       .  S
C1006      C1133   1.496       .  S
O1007     Cu2327   2.070       .  S
O1007      C1017   1.286       .  A
O1008     Cu1015   2.049   1_455  S
O1008      C1018   1.283       .  A
O1009     Cu1015   2.004       .  S
O1009      C1019   1.274       .  A
O1010     Cu1015   2.000       .  S
O1010      C1020   1.275       .  A
O1011     Cu1016   2.039       .  S
O1011      C1020   1.282       .  A
O1012     Cu1016   2.040       .  S
O1012      C1019   1.281       .  A
O1013     Cu1016   2.034   1_455  S
O1013      C1018   1.279       .  A
O1014     Cu2328   2.014       .  S
O1014      C1017   1.275       .  A
Cu1015     O2319   2.049       .  S
Cu1015    Cu1016   2.369       .  S
Cu1016     O2326   2.036       .  S
C1017      C1121   1.499       .  S
C1018      C1126   1.499       .  S
C1019      C1272   1.446       .  S
C1020      C1169   1.482       .  S
O1021     Cu1029   2.042       .  S
O1021      C1031   1.282       .  A
O1022     Cu1029   2.042       .  S
O1022      C1032   1.282       .  A
O1023     Cu1029   2.008       .  S
O1023      C1033   1.277       .  A
O1024     Cu1029   2.011       .  S
O1024      C1034   1.276       .  A
O1025     Cu1030   2.020       .  S
O1026     Cu1030   2.017       .  S
O1027     Cu1030   2.044       .  S
O1028     Cu1030   2.043       .  S
C1031      C1134   1.498       .  S
C1032      C1130   1.498       .  S
C1033      C1154   1.484       .  S
C1034      C1261   1.449       .  S
O1035     Cu1043   2.010       .  S
O1035      C1045   1.275       .  A
O1036     Cu1043   2.009       .  S
O1036      C1046   1.276       .  A
O1037     Cu1043   2.064       .  S
O1037      C1047   1.285       .  A
O1038     Cu1043   2.064       .  S
O1038      C1048   1.285       .  A
O1039     Cu1044   2.022       .  S
O1039      C1048   1.278       .  A
O1040     Cu1044   2.018       .  S
O1040      C1047   1.278       .  A
O1041     Cu1044   2.039       .  S
O1041      C1046   1.283       .  A
O1042     Cu1044   2.035       .  S
O1042      C1045   1.280       .  A
Cu1043    Cu1044   2.369       .  S
C1045      C1260   1.446       .  S
C1046      C1146   1.486       .  S
C1047      C1125   1.497       .  S
C1048      C1122   1.500       .  S
O1049      C1059   1.282       .  A
O1050     Cu1057   2.046       .  S
O1050      C1060   1.282       .  A
O1051     Cu1057   2.003       .  S
O1051      C1061   1.274       .  A
O1052     Cu1057   2.007       .  S
O1052      C1062   1.275       .  A
O1053     Cu1058   2.014       .  S
O1053      C2374   1.277       .  A
O1054     Cu1058   2.013       .  S
O1054      C2373   1.277       .  A
O1055     Cu1058   2.036   1_565  S
O1055      C2372   1.280       .  A
O1056      C2371   1.283       .  A
Cu1057    Cu2370   2.370       .  S
Cu1058    Cu2369   2.370       .  S
C1059      O2368   1.280       .  A
C1059      C1117   1.498       .  S
C1060      O2367   1.279       .  A
C1060      C1113   1.496       .  S
C1061      O2366   1.279       .  A
C1061      C1312   1.441       .  S
C1062      O2365   1.282       .  A
C1062      C1222   1.485       .  S
O1063     Cu1071   2.026       .  S
O1063      C1073   1.279       .  A
O1064     Cu1071   2.027       .  S
O1064      C1074   1.279       .  A
O1065     Cu1071   2.049       .  S
O1065      C1075   1.283       .  A
O1066     Cu1071   2.045       .  S
O1066      C1076   1.282       .  A
O1067     Cu1072   2.011       .  S
O1067      C2388   1.276       .  A
O1068     Cu1072   2.007       .  S
O1068      C2387   1.277       .  A
O1069     Cu1072   2.037       .  S
O1069      C2386   1.281       .  A
O1070     Cu1072   2.041       .  S
O1070      C2385   1.281       .  A
Cu1071    Cu2384   2.370       .  S
Cu1072    Cu2383   2.371       .  S
C1073      O2382   1.283       .  A
C1073      C1118   1.497       .  S
C1074      O2381   1.283       .  A
C1074      C1114   1.497       .  S
C1075      O2380   1.274       .  A
C1075      C1210   1.483       .  S
C1076      O2379   1.274       .  A
C1076      C1302   1.447       .  S
O1077     Cu1085   2.074       .  S
O1077      C1087   1.287       .  A
O1078      C1088   1.287       .  A
O1079     Cu1085   1.989       .  S
O1079      C1089   1.272       .  A
O1080     Cu1085   1.993       .  S
O1080      C1090   1.272       .  A
O1081     Cu1086   2.056       .  S
O1081      C1090   1.283       .  A
O1082     Cu1086   2.061       .  S
O1082      C1089   1.285       .  A
O1083      C1088   1.275       .  A
O1084     Cu1086   2.006       .  S
O1084      C1087   1.273       .  A
Cu1085    Cu1086   2.368       .  S
C1087      C1106   1.497       .  S
C1088      C1109   1.499       .  S
C1089      C1206   1.485       .  S
C1090      C1293   1.448       .  S
O1091     Cu1099   1.999       .  S
O1091      C1101   1.273       .  A
O1092     Cu1099   2.002       .  S
O1092      C1102   1.274       .  A
O1093     Cu1099   2.075       .  S
O1093      C1103   1.288       .  A
O1094     Cu1099   2.076       .  S
O1094      C1104   1.287       .  A
O1095     Cu1100   2.009       .  S
O1095      C1104   1.275       .  A
O1096     Cu1100   2.004       .  S
O1096      C1103   1.274       .  A
O1097     Cu1100   2.050       .  S
O1097      C1102   1.285       .  A
O1098     Cu1100   2.043       .  S
O1098      C1101   1.282       .  A
Cu1099    Cu1100   2.369       .  S
C1101      C1286   1.445       .  S
C1102      C1194   1.488       .  S
C1103      C1105   1.497       .  S
C1104      C1110   1.499       .  S
C1105      C1106   1.345       .  D
C1105      H1107   1.087       .  S
C1106      H1108   1.086       .  S
C1109      C1110   1.346       .  D
C1109      H1111   1.086       .  S
C1110      H1112   1.087       .  S
C1113      C1114   1.355       .  D
C1113      H2427   1.086       .  S
C1114      H1116   1.086       .  S
H1115      C2425   1.086       .  S
C1117      C1118   1.351       .  D
C1117      H2431   1.086       .  S
C1118      H1120   1.086       .  S
H1119      C2429   1.086       .  S
C1121      C1122   1.349       .  D
C1121      H1123   1.087       .  S
C1122      H1124   1.086       .  S
C1125      C1126   1.350       .  D
C1125      H1127   1.087       .  S
C1126      H1128   1.086       .  S
C1129      C1130   1.353       .  D
C1129      H1131   1.086       .  S
C1133      C1134   1.351       .  D
C1133      H1135   1.086       .  S
C1137      C1138   1.196       .  T
C1139      C1140   1.196       .  T
C1141      C1142   1.196       .  T
C1143      C1144   1.198       .  T
C1145      C1146   1.344   1_554  D
C1145      H1147   1.087   1_554  S
C1146      H1148   1.087       .  S
C1149      C1150   1.213       .  T
C1150      C1151   1.424       .  S
C1151      C1152   1.213       .  T
C1153      C1154   1.347       .  D
C1154      H1156   1.087       .  S
C1157      C1158   1.211       .  T
C1161      C1162   1.351       .  D
C1161      H1163   1.086       .  S
C1162      H1164   1.086       .  S
C1165      C1166   1.355       .  D
C1165      H1167   1.086       .  S
C1166      H1168   1.086       .  S
C1169      C1170   1.343       .  D
C1169      H2483   1.087       .  S
C1170      H1172   1.087       .  S
H1171      C2481   1.087       .  S
C1173      C1174   1.210       .  T
C1174      C1175   1.418       .  S
C1175      C1176   1.210       .  T
C1177      C1178   1.352       .  D
C1178      H1180   1.086       .  S
C1181      C1182   1.354       .  D
C1182      H1184   1.086       .  S
C1185      C1186   1.345       .  D
C1186      H2500   1.086       .  S
H1188      C2498   1.086       .  S
C1189      C1190   1.210       .  T
C1193      C1194   1.342       .  D
C1193      H1195   1.087       .  S
C1194      H1196   1.087       .  S
C1197      C1198   1.349       .  D
C1197      H1199   1.086       .  S
C1198      H1200   1.087       .  S
C1201      C1202   1.348       .  D
C1201      H1203   1.086       .  S
C1202      H1204   1.087       .  S
C1205      C1206   1.342       .  D
C1206      H1208   1.083       .  S
C1209      C1210   1.344       .  D
C1209      H1211   1.086       .  S
C1210      H2524   1.087       .  S
H1212      C2522   1.086       .  S
C1213      C1214   1.351       .  D
C1213      H1215   1.087       .  S
C1214      H2528   1.086       .  S
H1216      C2526   1.086       .  S
C1217      C1218   1.350       .  D
C1217      H1219   1.087       .  S
C1218      H2532   1.086       .  S
H1220      C2530   1.086       .  S
C1221      C1222   1.343       .  D
C1222      H2536   1.075       .  S
H1224      C2534   1.086       .  S
C1225      C1226   1.214       .  T
C1227      C1228   1.213       .  T
C1228      C1229   1.424       .  S
C1229      C1230   1.213       .  T
C1231      C1232   1.193       .  T
C1233      C1234   1.190       .  T
C1235      C1236   1.209       .  T
C1237      C1238   1.210       .  T
C1241      C1242   1.209       .  T
C1243      C1244   1.210       .  T
C1244      C2557   1.419       .  S
C1245      C2558   1.208       .  T
C1245      C2556   1.416       .  S
C1246      C2557   1.210       .  T
C1247      C1248   1.194       .  T
C1249      C1250   1.192       .  T
C1251      C1252   1.211   1_565  T
C1253      C1254   1.213       .  T
C1254      C2567   1.423       .  S
C1255      C2568   1.212       .  T
C1255      C2566   1.422   1_545  S
C1256      C2567   1.213       .  T
C1257      C1258   1.212       .  T
C1258      C1259   1.422       .  S
C1259      C1260   1.212       .  T
C1263      C1264   1.214       .  T
C1265      C1266   1.196       .  T
C1267      C1268   1.197       .  T
C1269      C1270   1.213       .  T
C1270      C2583   1.423       .  S
C1271      C2584   1.213       .  T
C1271      C2582   1.423       .  S
C1272      C2583   1.212       .  T
C1273      C1274   1.194       .  T
C1275      C1276   1.194       .  T
C1278      C1935   1.420       .  S
C1279      C2592   1.209       .  T
C1279      C1934   1.417       .  S
C1280      C2591   1.208       .  T
C1281      C1282   1.212       .  T
C1283      C1284   1.212       .  T
C1284      C1285   1.422       .  S
C1285      C1286   1.212       .  T
C1287      C1288   1.194       .  T
C1289      C1290   1.193       .  T
C1291      C1292   1.215   1_565  T
C1293      C1294   1.214       .  T
C1297      C1298   1.212       .  T
C1299      C1300   1.213       .  T
C1300      C1301   1.424       .  S
C1301      C1302   1.213       .  T
C1303      C1979   1.420       .  S
C1303      C1304   1.197       .  T
C1305      C1306   1.196       .  T
C1306      C1980   1.418       .  S
C1307      C1308   1.211       .  T
C1308      C1982   1.444       .  S
C1309      C1310   1.209       .  T
O1313     Cu1977   1.990       .  S
O1314     Cu1321   1.995       .  S
O1315     Cu1321   2.020       .  S
O1315      C1981   1.278       .  A
O1316     Cu1321   2.017       .  S
O1317     Cu1322   2.022       .  S
O1317      C1982   1.278       .  A
O1318     Cu1322   2.021       .  S
O1319     Cu1978   1.991       .  S
O1319      C1324   1.275       .  A
O1320     Cu1322   2.000       .  S
O1320      C1323   1.275       .  A
Cu1321     O1969   1.998   1_545  S
Cu1322     O1975   1.995       .  S
C1325      O1971   1.277       .  A
C1325      C1965   1.444       .  S
C1326      O1973   1.276       .  A
O1327     Cu1335   1.987       .  S
O1327      C1337   1.273       .  A
O1328     Cu1335   1.987       .  S
O1328      C1338   1.273       .  A
O1329     Cu1335   2.023       .  S
O1329      C1339   1.278       .  A
O1330     Cu1335   2.023       .  S
O1331     Cu1336   2.027       .  S
O1331      C1340   1.279       .  A
O1332     Cu1336   2.024       .  S
O1333     Cu1336   1.992       .  S
O1334     Cu1336   1.984       .  S
C1337      C1961   1.419       .  S
C1338      C1960   1.419       .  S
C1339      C1955   1.443       .  S
C1340      C1953   1.446       .  S
O1341     Cu1349   2.016       .  S
O1341      C1351   1.277       .  A
O1342     Cu1349   2.017       .  S
O1342      C1352   1.277       .  A
O1343     Cu2005   1.994   1_545  S
O1343      C1353   1.275       .  A
O1344     Cu1349   2.004       .  S
O1344      C1354   1.276       .  A
O1345     Cu1350   1.979       .  S
O1345      C1354   1.272       .  A
O1346     Cu2006   1.984   1_545  S
O1346      C1353   1.272       .  A
O1347     Cu1350   2.032       .  S
O1347      C1352   1.280       .  A
O1348     Cu1350   2.033       .  S
O1348      C1351   1.280       .  A
Cu1349     O1999   2.000       .  S
Cu1349    Cu1350   2.381       .  S
Cu1350     O2002   1.974       .  S
C1351      C1947   1.446       .  S
C1352      C1952   1.447       .  S
C1353      C1945   1.418       .  S
C1354      C1943   1.420       .  S
O1355     Cu1363   2.024       .  S
O1355      C1365   1.279       .  A
O1356     Cu1363   2.025       .  S
O1356      C1366   1.279       .  A
O1357     Cu1363   1.985       .  S
O1357      C1367   1.272       .  A
O1358     Cu1363   1.980       .  S
O1358      C1368   1.272       .  A
O1359     Cu1364   1.997       .  S
O1359      C1368   1.275       .  A
O1360     Cu1364   1.999       .  S
O1360      C1367   1.276       .  A
O1361     Cu1364   2.011       .  S
O1361      C1366   1.276       .  A
O1362     Cu1364   2.008       .  S
O1362      C1365   1.276       .  A
Cu1363    Cu1364   2.382       .  S
C1365      C1937   1.440       .  S
C1366      C1939   1.442       .  S
C1367      C1944   1.421       .  S
C1368      C1946   1.418       .  S
O1369     Cu1377   2.018       .  S
O1369      C1379   1.278       .  A
O1370     Cu1377   2.016       .  S
O1370      C1380   1.277       .  A
O1371     Cu1377   1.989       .  S
O1371      C1381   1.274       .  A
O1372      C1382   1.274       .  A
O1373      C2038   1.273       .  A
O1374     Cu1378   1.981   1_655  S
O1374      C2037   1.273       .  A
O1375     Cu1378   2.026       .  S
O1375      C2036   1.279       .  A
O1376     Cu1378   2.025       .  S
O1376      C2035   1.279       .  A
Cu1377    Cu2034   2.382   1_545  S
Cu1378    Cu2033   2.382       .  S
C1379      O2032   1.277   1_545  A
C1379      C2592   1.441       .  S
C1380      O2031   1.277   1_545  A
C1380      C1963   1.440       .  S
C1381      O2030   1.273   1_545  A
C1381      C1929   1.417       .  S
C1382      O2029   1.274       .  A
C1382      C1931   1.418       .  S
O1383      C1393   1.274       .  A
O1384     Cu1391   1.991       .  S
O1384      C1394   1.274       .  A
O1385     Cu1391   2.024       .  S
O1385      C1395   1.278       .  A
O1386     Cu1391   2.025       .  S
O1386      C1396   1.279       .  A
O1387     Cu1392   2.026       .  S
O1387      C1396   1.278       .  A
O1388     Cu1392   2.025       .  S
O1388      C1395   1.278       .  A
O1389     Cu1392   2.001       .  S
O1389      C1394   1.276       .  A
O1390      C1393   1.275       .  A
Cu1391    Cu1392   2.380       .  S
C1393      C1922   1.420       .  S
C1394      C1924   1.424       .  S
C1395      C1954   1.447       .  S
C1396      C1925   1.448       .  S
O1397     Cu1405   1.986       .  S
O1397      C2063   1.274       .  A
O1398     Cu1405   1.988       .  S
O1398      C2064   1.274       .  A
O1399     Cu1405   2.022       .  S
O1399      C2065   1.278       .  A
O1400     Cu1405   2.018       .  S
O1400      C1410   1.278       .  A
O1401     Cu1406   2.022       .  S
O1401      C2066   1.278       .  A
O1402     Cu1406   2.023       .  S
O1402      C1409   1.278       .  A
O1403     Cu1406   1.988       .  S
O1403      C1408   1.273       .  A
O1404     Cu1406   1.985       .  S
O1404      C1407   1.274       .  A
Cu1405    Cu2062   2.382       .  S
Cu1406    Cu2061   2.382   1_545  S
C1407      O2053   1.274   1_545  A
C1407      C1930   1.417       .  S
C1408      O2054   1.275       .  A
C1408      C1932   1.418       .  S
C1409      O2055   1.278   1_545  A
C1409      C2604   1.445       .  S
C1410      O2057   1.278       .  A
C1410      C1920   1.444       .  S
O1411     Cu1419   2.017       .  S
O1411      C1421   1.278       .  A
O1412     Cu1419   2.017       .  S
O1412      C1422   1.277       .  A
O1413     Cu1419   1.993       .  S
O1413      C1423   1.274       .  A
O1414     Cu1419   1.990       .  S
O1414      C1424   1.274       .  A
O1415     Cu1420   1.994       .  S
O1415      C1424   1.275       .  A
O1416     Cu1420   1.999       .  S
O1416      C1423   1.275       .  A
O1417     Cu1420   2.012       .  S
O1417      C1422   1.277       .  A
O1418     Cu1420   2.015       .  S
O1418      C1421   1.277       .  A
Cu1419    Cu1420   2.382       .  S
C1421      C1938   1.440       .  S
C1422      C1913   1.439       .  S
C1423      C1923   1.424       .  S
C1424      C1921   1.420       .  S
O1425     Cu1433   1.988       .  S
O1425      C1435   1.274       .  A
O1426     Cu2089   1.988       .  S
O1426      C1436   1.273       .  A
O1427     Cu1433   2.020       .  S
O1427      C1437   1.278   1_655  A
O1428     Cu1433   2.016       .  S
O1428      C1438   1.277       .  A
O1429     Cu1434   2.035       .  S
O1430     Cu1434   2.035       .  S
O1431     Cu2090   1.975   1_545  S
O1432     Cu1434   1.977       .  S
Cu1433     O2082   1.981       .  S
Cu1434     O2087   1.974       .  S
C1435      C1903   1.422       .  S
C1436      C1906   1.419       .  S
C1437      C1907   1.445       .  S
C1438      C1909   1.443       .  S
O1439     Cu1447   1.995       .  S
O1439      C1449   1.275       .  A
O1440     Cu1447   1.993       .  S
O1440      C1450   1.274       .  A
O1441     Cu1447   2.020       .  S
O1441      C1451   1.278       .  A
O1442     Cu1447   2.021       .  S
O1442      C1452   1.278       .  A
O1443     Cu1448   2.013       .  S
O1444     Cu1448   2.014       .  S
O1445     Cu1448   1.991       .  S
O1446     Cu1448   1.993       .  S
C1449      C1904   1.422       .  S
C1450      C1905   1.419       .  S
C1451      C1899   1.444       .  S
C1452      C1897   1.444       .  S
O1453     Cu1461   1.999       .  S
O1453      C1463   1.276       .  A
O1454     Cu2117   1.994   1_545  S
O1454      C1464   1.275       .  A
O1455     Cu1461   2.016       .  S
O1455      C1465   1.277       .  A
O1456     Cu1461   2.017       .  S
O1456      C1466   1.277       .  A
O1457     Cu1462   2.020       .  S
O1457      C1466   1.278       .  A
O1458     Cu1462   2.020       .  S
O1458      C1465   1.278       .  A
O1459     Cu2118   1.985       .  S
O1459      C1464   1.273       .  A
O1460     Cu1462   1.988       .  S
O1460      C1463   1.273       .  A
Cu1461     O2110   2.001       .  S
Cu1461    Cu1462   2.381       .  S
Cu1462     O2115   1.986       .  S
C1463      C1887   1.422       .  S
C1464      C1890   1.418       .  S
C1465      C1891   1.441       .  S
C1466      C1893   1.442       .  S
O1467     Cu1475   1.999       .  S
O1467      C1477   1.275       .  A
O1468     Cu1475   1.994       .  S
O1468      C1478   1.275       .  A
O1469     Cu1475   2.016       .  S
O1469      C1479   1.277       .  A
O1470     Cu1475   2.017       .  S
O1470      C1480   1.277       .  A
O1471     Cu1476   2.028       .  S
O1471      C1480   1.279       .  A
O1472     Cu1476   2.029       .  S
O1472      C1479   1.279       .  A
O1473     Cu1476   1.985       .  S
O1473      C1478   1.273       .  A
O1474     Cu1476   1.987       .  S
O1474      C1477   1.273       .  A
Cu1475    Cu1476   2.381       .  S
C1477      C1888   1.422       .  S
C1478      C1889   1.419       .  S
C1479      C1882   1.445       .  S
C1480      C1883   1.445       .  S
O1481     Cu1489   1.989       .  S
O1482     Cu1489   1.993       .  S
O1483     Cu2145   2.063   1_545  S
O1484     Cu1489   2.076       .  S
O1485     Cu1490   2.032       .  S
O1485      C1494   1.280       .  A
O1486     Cu2146   2.056       .  S
O1486      C1493   1.284       .  A
O1487     Cu1490   2.025       .  S
O1487      C1492   1.279       .  A
O1488     Cu1490   2.027       .  S
O1488      C1491   1.279       .  A
Cu1489     O2139   2.079       .  S
Cu1490     O2142   2.037       .  S
C1491      C1877   1.485       .  S
C1492      C1912   1.443       .  S
C1493      C1873   1.498       .  S
C1494      C1869   1.495       .  S
O1495     Cu1503   2.025       .  S
O1496     Cu1503   2.028       .  S
O1497     Cu1503   2.014       .  S
O1498     Cu1503   2.015       .  S
O1499     Cu1504   2.033       .  S
O1499      C1508   1.280       .  A
O1500     Cu1504   2.033       .  S
O1500      C1507   1.279       .  A
O1501     Cu1504   2.021       .  S
O1501      C1506   1.278       .  A
O1502     Cu1504   2.021       .  S
O1502      C1505   1.277       .  A
C1505      C1902   1.444       .  S
C1506      C1865   1.484       .  S
C1507      C1874   1.499       .  S
C1508      C1870   1.497       .  S
O1509     Cu1517   2.004       .  S
O1509      C1519   1.275       .  A
O1510     Cu1517   2.008       .  S
O1510      C1520   1.275       .  A
O1511     Cu1517   2.069       .  S
O1511      C1521   1.286       .  A
O1512     Cu2173   2.067   1_545  S
O1512      C1522   1.286       .  A
O1513     Cu2174   2.018   1_545  S
O1513      C1522   1.277       .  A
O1514     Cu1518   2.016       .  S
O1514      C1521   1.277       .  A
O1515     Cu1518   2.040       .  S
O1515      C1520   1.283       .  A
O1516     Cu1518   2.031       .  S
O1516      C1519   1.279       .  A
Cu1517     O2168   2.070       .  S
Cu1517    Cu1518   2.370       .  S
Cu1518     O2169   2.016       .  S
C1519      C1896   1.442       .  S
C1520      C1861   1.487       .  S
C1521      C1853   1.498       .  S
C1522      C1857   1.500       .  S
O1523     Cu1531   2.041       .  S
O1523      C1533   1.281       .  A
O1524     Cu1531   2.044       .  S
O1524      C1534   1.283       .  A
O1525     Cu1531   2.017       .  S
O1525      C1535   1.275       .  A
O1526     Cu1531   2.016       .  S
O1526      C1536   1.276       .  A
O1527     Cu1532   2.068       .  S
O1527      C1536   1.286       .  A
O1528     Cu1532   2.071       .  S
O1528      C1535   1.286       .  A
O1529     Cu1532   1.993       .  S
O1529      C1534   1.273       .  A
O1530     Cu1532   1.997       .  S
O1530      C1533   1.273       .  A
Cu1531    Cu1532   2.369       .  S
C1533      C1886   1.444       .  S
C1534      C1849   1.481       .  S
C1535      C1858   1.499       .  S
C1536      C1854   1.499       .  S
O1537      C1547   1.281       .  A
O1538     Cu1545   2.041   1_655  S
O1538      C1548   1.281       .  A
O1539     Cu1545   2.013       .  S
O1539      C1549   1.278       .  A
O1540     Cu1545   2.017       .  S
O1540      C1550   1.277       .  A
O1541     Cu1546   2.028       .  S
O1541      C2206   1.279       .  A
O1542     Cu1546   2.031       .  S
O1542      C2205   1.281       .  A
O1543     Cu1546   2.032   1_655  S
O1543      C2204   1.279       .  A
O1544      C2203   1.279       .  A
Cu1545    Cu2202   2.367       .  S
Cu1546    Cu2201   2.370       .  S
C1547      O2200   1.280       .  A
C1547      C1837   1.496       .  S
C1548      O2199   1.280       .  A
C1548      C1833   1.496       .  S
C1549      O2198   1.280       .  A
C1549      C1841   1.482       .  S
C1550      O2197   1.278       .  A
C1550      C1848   1.445       .  S
O1551     Cu1559   2.034       .  S
O1551      C1561   1.280       .  A
O1552      C1562   1.279       .  A
O1554     Cu1559   2.017       .  S
O1554      C1564   1.277       .  A
O1555     Cu1560   2.021       .  S
O1555      C1564   1.278       .  A
O1556     Cu1560   2.029       .  S
O1556      C1563   1.280       .  A
O1557      C1562   1.284       .  A
O1558     Cu1560   2.058       .  S
O1558      C1561   1.284       .  A
Cu1559    Cu1560   2.368       .  S
C1561      C1821   1.502       .  S
C1562      C1817   1.503       .  S
C1563      C1826   1.485   1_554  S
C1564      C1829   1.443       .  S
O1565     Cu1573   2.006       .  S
O1565      C2231   1.276       .  A
O1566     Cu1573   2.004       .  S
O1566      C2232   1.275       .  A
O1567     Cu1573   2.049       .  S
O1567      C2233   1.283       .  A
O1568     Cu1573   2.043       .  S
O1568      C2234   1.282       .  A
O1569     Cu1574   2.038       .  S
O1569      C1578   1.281       .  A
O1570     Cu1574   2.035       .  S
O1570      C1577   1.281       .  A
O1571     Cu1574   2.016       .  S
O1571      C1576   1.277       .  A
O1572     Cu1574   2.019       .  S
O1572      C1575   1.280       .  A
Cu1573    Cu2230   2.372       .  S
Cu1574    Cu2229   2.369       .  S
C1575      O2221   1.277       .  A
C1575      C1809   1.482   1_554  S
C1576      O2222   1.277       .  A
C1576      C1816   1.440       .  S
C1577      O2223   1.281       .  A
C1577      C1834   1.496       .  S
C1578      O2224   1.280       .  A
C1578      C1838   1.495       .  S
O1579     Cu1587   2.058       .  S
O1579      C1589   1.284       .  A
O1580     Cu1587   2.059       .  S
O1580      C1590   1.284       .  A
O1581     Cu1587   2.024       .  S
O1581      C1591   1.278       .  A
O1582     Cu1587   2.023       .  S
O1582      C1592   1.280       .  A
O1583     Cu1588   2.011       .  S
O1583      C1592   1.277       .  A
O1584     Cu1588   2.015       .  S
O1584      C1591   1.277       .  A
O1585     Cu1588   2.036       .  S
O1585      C1590   1.280       .  A
O1586     Cu1588   2.035       .  S
O1586      C1589   1.280       .  A
Cu1587    Cu1588   2.370       .  S
C1589      C1822   1.502       .  S
C1590      C1818   1.503       .  S
C1591      C1805   1.444       .  S
C1592      C1801   1.481   1_554  S
O1593     Cu1601   1.988   1_655  S
O1593      C1603   1.274       .  A
O1594      C1604   1.274       .  A
O1595     Cu1601   2.017       .  S
O1595      C1605   1.277       .  A
O1596     Cu1601   2.016       .  S
O1596      C1606   1.277       .  A
O1597     Cu1602   2.021       .  S
O1597      C2262   1.278       .  A
O1598     Cu1602   2.024       .  S
O1598      C2261   1.279   1_455  A
O1599      C2260   1.274       .  A
O1600     Cu1602   1.987   1_655  S
O1600      C2259   1.273       .  A
Cu1601    Cu2258   2.382       .  S
Cu1602    Cu2257   2.381       .  S
C1603      O2256   1.273       .  A
C1603      C1797   1.416       .  S
C1604      O2255   1.273       .  A
C1604      C1799   1.415       .  S
C1605      O2254   1.279       .  A
C1605      C1908   1.445       .  S
C1606      O2253   1.279       .  A
C1606      C1845   1.445       .  S
O1607      C1617   1.274       .  A
O1608     Cu1615   1.992       .  S
O1608      C1618   1.274       .  A
O1609     Cu1615   2.017       .  S
O1610     Cu1615   2.019       .  S
O1610      C1620   1.278       .  A
O1611     Cu1616   2.021       .  S
O1612     Cu1616   2.021       .  S
O1612      C1619   1.278       .  A
O1613      C1618   1.274       .  A
O1614     Cu1616   1.991       .  S
O1614      C1617   1.274       .  A
C1617      C1793   1.418       .  S
C1618      C1795   1.420       .  S
C1619      C1898   1.444       .  S
C1620      C1832   1.443       .  S
O1621     Cu1629   1.983       .  S
O1621      C2287   1.272       .  A
O1622     Cu1629   1.987       .  S
O1622      C2288   1.274       .  A
O1623     Cu1629   2.023       .  S
O1623      C2289   1.279       .  A
O1624     Cu1629   2.021       .  S
O1624      C2290   1.278       .  A
O1625     Cu1630   2.020       .  S
O1625      C1634   1.278       .  A
O1626     Cu1630   2.021       .  S
O1626      C1633   1.278       .  A
O1627     Cu1630   1.985       .  S
O1627      C1632   1.273       .  A
O1628     Cu1630   1.986       .  S
O1628      C1631   1.273       .  A
Cu1629    Cu2286   2.383   1_545  S
Cu1630    Cu2285   2.383       .  S
C1631      O2277   1.274       .  A
C1631      C1798   1.416       .  S
C1632      O2278   1.274       .  A
C1632      C1800   1.416       .  S
C1633      O2279   1.277       .  A
C1633      C1892   1.441       .  S
C1634      O2280   1.277       .  A
C1634      C1813   1.440       .  S
O1635     Cu1643   1.992       .  S
O1635      C1645   1.274       .  A
O1636     Cu1643   1.987       .  S
O1636      C1646   1.274       .  A
O1637     Cu1643   2.022       .  S
O1637      C1647   1.278       .  A
O1638     Cu1643   2.021       .  S
O1638      C1648   1.278       .  A
O1639     Cu1644   2.020       .  S
O1639      C1648   1.278       .  A
O1640     Cu1644   2.023       .  S
O1640      C1647   1.278       .  A
O1641     Cu1644   1.991       .  S
O1641      C1646   1.274       .  A
O1642     Cu1644   1.990       .  S
O1642      C1645   1.274       .  A
Cu1643    Cu1644   2.381       .  S
C1645      C1796   1.420       .  S
C1646      C1794   1.418       .  S
C1647      C1881   1.445       .  S
C1648      C1808   1.444       .  S
O1649     Cu1657   2.011       .  S
O1649      C2315   1.277       .  A
O1650     Cu1657   2.012       .  S
O1650      C2316   1.276       .  A
O1651     Cu1657   2.049       .  S
O1651      C2317   1.283       .  A
O1652      C2318   1.280       .  A
O1653      C1662   1.283       .  A
O1654     Cu1658   2.036   1_655  S
O1654      C1661   1.280       .  A
O1655     Cu1658   2.015       .  S
O1655      C1660   1.277       .  A
O1656     Cu1658   2.018       .  S
O1656      C1659   1.279       .  A
Cu1657    Cu2314   2.371       .  S
Cu1658    Cu2313   2.370       .  S
C1659      O2305   1.278       .  A
C1659      C1842   1.485       .  S
C1660      O2306   1.278       .  A
C1660      C1933   1.442       .  S
C1661      O2307   1.282       .  A
C1661      C1785   1.497       .  S
C1662      O2308   1.280       .  A
C1662      C1789   1.499       .  S
O1663      C1673   1.283       .  A
O1664     Cu1671   2.064       .  S
O1664      C1674   1.285       .  A
O1665     Cu1671   2.010       .  S
O1665      C1675   1.275       .  A
O1666     Cu1671   2.003       .  S
O1666      C1676   1.275       .  A
O1667     Cu1672   2.042       .  S
O1667      C1676   1.283       .  A
O1668     Cu1672   2.040       .  S
O1668      C1675   1.280       .  A
O1669     Cu1672   2.021       .  S
O1669      C1674   1.278       .  A
O1670      C1673   1.281       .  A
Cu1671    Cu1672   2.369       .  S
C1673      C1777   1.500       .  S
C1674      C1782   1.498       .  S
C1675      C1928   1.448       .  S
C1676      C1825   1.484       .  S
O1677     Cu1685   2.045       .  S
O1677      C1687   1.281       .  A
O1678     Cu1685   2.041       .  S
O1678      C1688   1.282       .  A
O1679     Cu1685   2.009       .  S
O1679      C1689   1.277       .  A
O1680     Cu1685   2.013       .  S
O1680      C1690   1.276       .  A
O1681     Cu1686   2.026       .  S
O1681      C2346   1.279       .  A
O1682     Cu1686   2.022       .  S
O1682      C2345   1.280       .  A
O1683     Cu1686   2.037       .  S
O1683      C2344   1.280       .  A
O1684     Cu1686   2.035       .  S
O1684      C2343   1.281       .  A
Cu1685    Cu2342   2.369       .  S
Cu1686    Cu2341   2.371       .  S
C1687      O2340   1.281       .  A
C1687      C1790   1.497       .  S
C1688      O2339   1.281       .  A
C1688      C1786   1.498       .  S
C1689      O2338   1.280       .  A
C1689      C1810   1.480       .  S
C1690      O2337   1.278       .  A
C1690      C1917   1.443       .  S
O1691     Cu1699   2.011       .  S
O1691      C1701   1.276       .  A
O1692     Cu1699   2.013       .  S
O1692      C1702   1.277       .  A
O1693     Cu1699   2.044       .  S
O1693      C1703   1.282       .  A
O1694     Cu1699   2.042       .  S
O1694      C1704   1.282       .  A
O1695     Cu1700   2.045       .  S
O1695      C1704   1.281       .  A
O1696     Cu1700   2.039       .  S
O1696      C1703   1.281       .  A
O1697     Cu1700   2.022       .  S
O1697      C1702   1.280       .  A
O1698     Cu1700   2.016       .  S
O1698      C1701   1.277       .  A
Cu1699    Cu1700   2.371       .  S
C1701      C1916   1.439       .  S
C1702      C1802   1.481       .  S
C1703      C1781   1.500       .  S
C1704      C1778   1.500       .  S
O1705     Cu2369   2.046       .  S
O1705      C1715   1.282       .  A
O1706     Cu1713   2.029       .  S
O1706      C1716   1.280       .  A
O1707     Cu1713   2.034       .  S
O1707      C1717   1.279       .  A
O1708     Cu1713   2.035       .  S
O1708      C1718   1.281       .  A
O1709     Cu1714   2.026       .  S
O1710     Cu1714   2.022       .  S
O1711     Cu1714   2.038       .  S
O1712     Cu2370   2.027   1_545  S
Cu1713     O2361   2.032       .  S
Cu1714     O2368   2.035       .  S
C1715      C1773   1.496       .  S
C1716      C1769   1.497       .  S
C1717      C1968   1.443       .  S
C1718      C1878   1.480       .  S
O1719     Cu1727   2.039       .  S
O1719      C1729   1.281       .  A
O1720     Cu1727   2.042       .  S
O1720      C1730   1.282       .  A
O1721     Cu1727   2.027       .  S
O1721      C1731   1.280       .  A
O1722     Cu1727   2.026       .  S
O1722      C1732   1.278       .  A
O1723     Cu1728   2.003       .  S
O1724     Cu1728   1.995       .  S
O1725     Cu1728   2.043       .  S
O1726     Cu1728   2.047       .  S
C1729      C1774   1.498       .  S
C1730      C1770   1.498       .  S
C1731      C1866   1.482       .  S
C1732      C1958   1.443       .  S
O1733     Cu1741   2.065       .  S
O1733      C1743   1.286       .  A
O1734     Cu2397   2.075   1_545  S
O1734      C1744   1.287       .  A
O1735     Cu1741   1.993       .  S
O1735      C1745   1.274       .  A
O1736     Cu1741   1.997       .  S
O1736      C1746   1.273       .  A
O1737     Cu1742   2.046       .  S
O1737      C1746   1.282       .  A
O1738     Cu1742   2.054       .  S
O1738      C1745   1.284       .  A
O1739     Cu2398   2.011   1_545  S
O1739      C1744   1.276       .  A
O1740     Cu1742   2.020       .  S
O1740      C1743   1.277       .  A
Cu1741     O2390   2.065       .  S
Cu1741    Cu1742   2.369       .  S
Cu1742     O2395   2.022       .  S
C1743      C1762   1.499       .  S
C1744      C1765   1.499       .  S
C1745      C1862   1.484       .  S
C1746      C1949   1.446       .  S
O1747     Cu1755   2.002       .  S
O1747      C1757   1.274       .  A
O1748     Cu1755   2.002       .  S
O1748      C1758   1.274       .  A
O1749     Cu1755   2.066       .  S
O1749      C1759   1.286       .  A
O1750     Cu1755   2.066       .  S
O1750      C1760   1.286       .  A
O1751     Cu1756   2.021       .  S
O1751      C1760   1.277       .  A
O1752     Cu1756   2.019       .  S
O1752      C1759   1.277       .  A
O1753     Cu1756   2.035       .  S
O1753      C1758   1.283       .  A
O1754     Cu1756   2.032       .  S
O1754      C1757   1.280       .  A
Cu1755    Cu1756   2.370       .  S
C1757      C1942   1.441       .  S
C1758      C1850   1.483       .  S
C1759      C1761   1.499       .  S
C1760      C1766   1.500       .  S
C1761      C1762   1.349       .  D
C1761      H1763   1.086       .  S
C1762      H1764   1.087       .  S
C1765      C1766   1.348       .  D
C1765      H1767   1.087       .  S
C1766      H1768   1.086       .  S
C1769      C1770   1.352       .  D
C1770      H1772   1.086       .  S
C1773      C1774   1.353       .  D
C1774      H1776   1.086       .  S
C1777      C1778   1.355       .  D
C1777      H1779   1.086       .  S
C1778      H1780   1.086       .  S
C1781      C1782   1.352       .  D
C1781      H1783   1.086       .  S
C1782      H1784   1.087       .  S
C1785      C1786   1.354       .  D
C1785      H1787   1.084       .  S
C1786      H2444   1.086       .  S
H1788      C2442   1.086       .  S
C1789      C1790   1.354       .  D
C1789      H1791   1.087       .  S
C1790      H2448   1.086       .  S
H1792      C2446   1.086       .  S
C1793      C1794   1.196       .  T
C1795      C1796   1.197       .  T
C1797      C1798   1.195       .  T
C1799      C1800   1.194       .  T
C1801      C1802   1.345       .  D
C1801      H1803   1.087       .  S
C1802      H1804   1.087       .  S
C1805      C1806   1.211       .  T
C1806      C1807   1.420       .  S
C1807      C1808   1.211       .  T
C1809      C1810   1.345       .  D
C1809      H2467   1.086       .  S
C1810      H1812   1.087       .  S
H1811      C2465   1.087       .  S
C1813      C1814   1.209       .  T
C1814      C2471   1.417       .  S
C1815      C2472   1.207       .  T
C1815      C2470   1.414       .  S
C1816      C2471   1.209       .  T
C1817      C1818   1.353       .  D
C1817      H1819   1.086       .  S
C1818      H1820   1.086       .  S
C1821      C1822   1.353       .  D
C1821      H1823   1.086       .  S
C1822      H1824   1.086       .  S
C1825      C1826   1.344       .  D
C1826      H1828   1.083       .  S
C1829      C1830   1.210       .  T
C1830      C1831   1.420       .  S
C1831      C1832   1.210       .  T
C1833      C1834   1.352       .  D
C1833      H2491   1.086       .  S
C1834      H1836   1.086       .  S
H1835      C2489   1.086       .  S
C1837      C1838   1.353       .  D
C1837      H2495   1.086       .  S
C1838      H1840   1.086       .  S
H1839      C2493   1.086       .  S
C1841      C1842   1.347   1_554  D
C1841      H2499   1.086   1_554  S
H1843      C2497   1.088       .  S
C1845      C1846   1.211       .  T
C1846      C2503   1.421       .  S
C1847      C2504   1.210       .  T
C1847      C2502   1.420       .  S
C1848      C2503   1.211       .  T
C1849      C1850   1.341       .  D
C1849      H1851   1.087       .  S
C1850      H1852   1.086       .  S
C1853      C1854   1.348       .  D
C1853      H1855   1.087       .  S
C1854      H1856   1.086       .  S
C1857      C1858   1.348       .  D
C1857      H1859   1.086       .  S
C1858      H1860   1.086       .  S
C1861      C1862   1.343       .  D
C1861      H2519   1.086       .  S
C1862      H1864   1.087       .  S
H1863      C2517   1.086       .  S
C1865      C1866   1.347       .  D
C1865      H1867   1.086       .  S
C1869      C1870   1.353       .  D
C1869      H1871   1.086       .  S
C1873      C1874   1.351       .  D
C1873      H1875   1.086       .  S
C1877      C1878   1.346       .  D
C1877      H2535   1.086       .  S
H1879      C2533   1.086       .  S
C1881      C1882   1.212       .  T
C1883      C1884   1.212       .  T
C1884      C1885   1.421       .  S
C1885      C1886   1.211       .  T
C1887      C1888   1.198       .  T
C1889      C1890   1.196       .  T
C1891      C1892   1.210       .  T
C1893      C1894   1.210       .  T
C1894      C2551   1.419       .  S
C1895      C2552   1.211       .  T
C1895      C2550   1.420       .  S
C1896      C2551   1.210       .  T
C1897      C1898   1.211       .  T
C1899      C1900   1.211       .  T
C1903      C1904   1.198       .  T
C1905      C1906   1.197       .  T
C1907      C1908   1.212       .  T
C1909      C1910   1.210       .  T
C1913      C1914   1.208       .  T
C1914      C1915   1.415       .  S
C1915      C1916   1.208       .  T
C1917      C2574   1.211       .  T
C1918      C2573   1.210       .  T
C1918      C2575   1.419       .  S
C1919      C1920   1.211       .  T
C1919      C2574   1.420       .  S
C1921      C1922   1.197       .  T
C1923      C1924   1.199       .  T
C1925      C1926   1.213       .  T
C1929      C1930   1.195       .  T
C1931      C1932   1.196       .  T
C1933      C2590   1.210       .  T
C1934      C2589   1.209       .  T
C1936      C2035   1.443       .  S
C1937      C1938   1.209       .  T
C1939      C1940   1.210       .  T
C1940      C1941   1.418       .  S
C1941      C1942   1.209       .  T
C1943      C1944   1.197       .  T
C1945      C1946   1.196       .  T
C1947      C1948   1.213       .  T
C1948      C2065   1.447       .  S
C1949      C1950   1.212       .  T
C1950      C2607   1.423       .  S
C1951      C2608   1.213       .  T
C1951      C2606   1.424       .  S
C1952      C2607   1.213       .  T
C1953      C1954   1.212       .  T
C1955      C1956   1.210       .  T
C1956      C1957   1.419       .  S
C1957      C1958   1.210       .  T
C1959      C1960   1.196       .  T
C1961      C1962   1.196       .  T
C1963      C1964   1.209       .  T
C1965      C1966   1.211       .  T
C1966      C2623   1.420       .  S
C1967      C2624   1.209       .  T
C1967      C2622   1.418       .  S
C1968      C2623   1.211       .  T
O1970     Cu1977   1.990       .  S
O1971     Cu1977   2.016       .  S
O1972     Cu1977   2.015       .  S
O1973     Cu1978   2.008       .  S
O1974     Cu1978   2.010   1_565  S
O1975      C1980   1.275       .  A
O1976     Cu1978   1.994   1_565  S
O1976      C1979   1.275       .  A
C1981      C2621   1.442       .  S
O1983     Cu1991   1.988       .  S
O1983      C1993   1.274       .  A
O1984     Cu1991   1.991       .  S
O1984      C1994   1.273       .  A
O1985     Cu1991   2.021       .  S
O1985      C1995   1.278       .  A
O1986     Cu1991   2.021       .  S
O1987     Cu1992   2.036       .  S
O1987      C1996   1.280       .  A
O1988     Cu1992   2.034       .  S
O1989     Cu1992   1.986       .  S
O1990     Cu1992   1.982       .  S
C1993      C2617   1.420       .  S
C1994      C2616   1.420       .  S
C1995      C2611   1.445       .  S
C1996      C2609   1.448       .  S
O1997     Cu2005   2.011   1_545  S
O1997      C2007   1.276       .  A
O1998     Cu2005   2.015       .  S
O1998      C2008   1.276       .  A
O1999      C2009   1.276       .  A
O2000     Cu2005   1.997       .  S
O2000      C2010   1.276       .  A
O2001     Cu2006   1.989       .  S
O2001      C2010   1.273       .  A
O2002      C2009   1.272       .  A
O2003     Cu2006   2.035       .  S
O2003      C2008   1.280       .  A
O2004     Cu2006   2.032   1_545  S
O2004      C2007   1.280       .  A
Cu2005    Cu2006   2.381       .  S
C2007      C2603   1.445       .  S
C2008      C2608   1.447       .  S
C2009      C2601   1.417       .  S
C2010      C2599   1.422       .  S
O2011     Cu2019   2.029       .  S
O2011      C2021   1.279       .  A
O2012     Cu2019   2.029       .  S
O2012      C2022   1.280       .  A
O2013     Cu2019   1.982       .  S
O2013      C2023   1.273       .  A
O2014     Cu2019   1.979       .  S
O2014      C2024   1.272       .  A
O2015     Cu2020   1.997       .  S
O2015      C2024   1.276       .  A
O2016     Cu2020   2.003       .  S
O2016      C2023   1.276       .  A
O2017     Cu2020   2.013       .  S
O2017      C2022   1.276       .  A
O2018     Cu2020   2.013       .  S
O2018      C2021   1.276       .  A
Cu2019    Cu2020   2.381       .  S
C2021      C2593   1.444       .  S
C2022      C2595   1.444       .  S
C2023      C2600   1.421       .  S
C2024      C2602   1.417       .  S
O2025     Cu2033   2.014       .  S
O2025      C2035   1.277       .  A
O2026     Cu2033   2.015       .  S
O2026      C2036   1.277       .  A
O2027     Cu2033   1.989   1_655  S
O2027      C2037   1.274       .  A
O2028      C2038   1.274       .  A
O2030     Cu2034   1.986       .  S
O2031     Cu2034   2.015       .  S
O2032     Cu2034   2.017       .  S
C2036      C2619   1.444       .  S
C2037      C2585   1.415       .  S
C2038      C2587   1.416       .  S
O2039      C2049   1.273       .  A
O2040     Cu2047   1.982       .  S
O2040      C2050   1.273       .  A
O2041     Cu2047   2.028       .  S
O2041      C2051   1.279       .  A
O2042     Cu2047   2.025       .  S
O2042      C2052   1.279       .  A
O2043     Cu2048   2.025       .  S
O2043      C2052   1.278       .  A
O2044     Cu2048   2.025       .  S
O2044      C2051   1.279       .  A
O2045     Cu2048   1.997       .  S
O2045      C2050   1.275       .  A
O2046      C2049   1.275       .  A
Cu2047    Cu2048   2.381       .  S
C2049      C2578   1.417       .  S
C2050      C2580   1.419       .  S
C2051      C2610   1.449       .  S
C2052      C2581   1.447       .  S
O2053     Cu2061   1.990       .  S
O2054     Cu2061   1.989   1_545  S
O2055     Cu2061   2.021       .  S
O2056     Cu2061   2.018   1_545  S
O2056      C2066   1.278       .  A
O2057     Cu2062   2.024       .  S
O2058     Cu2062   2.026       .  S
O2058      C2065   1.279       .  A
O2059     Cu2062   1.984       .  S
O2059      C2064   1.273       .  A
O2060     Cu2062   1.984       .  S
O2060      C2063   1.273       .  A
C2063      C2586   1.415       .  S
C2064      C2588   1.416       .  S
C2066      C2576   1.443       .  S
O2067     Cu2075   2.026       .  S
O2067      C2077   1.279       .  A
O2068     Cu2075   2.025       .  S
O2068      C2078   1.279       .  A
O2069     Cu2075   1.989       .  S
O2069      C2079   1.273       .  A
O2070     Cu2075   1.982       .  S
O2070      C2080   1.273       .  A
O2071     Cu2076   1.992       .  S
O2071      C2080   1.274       .  A
O2072     Cu2076   1.993       .  S
O2072      C2079   1.275       .  A
O2073     Cu2076   2.012       .  S
O2073      C2078   1.276       .  A
O2074     Cu2076   2.014       .  S
O2074      C2077   1.277       .  A
Cu2075    Cu2076   2.382       .  S
C2077      C2594   1.444       .  S
C2078      C2569   1.441       .  S
C2079      C2579   1.420       .  S
C2080      C2577   1.417       .  S
O2081     Cu2089   1.992   1_565  S
O2081      C2091   1.274       .  A
O2082      C2092   1.273       .  A
O2083     Cu2089   2.035       .  S
O2083      C2093   1.281       .  A
O2084     Cu2089   2.035       .  S
O2084      C2094   1.280   1_545  A
O2085     Cu2090   2.030       .  S
O2086     Cu2090   2.029       .  S
O2088     Cu2090   1.975       .  S
C2091      C2559   1.422       .  S
C2092      C2562   1.415       .  S
C2093      C2563   1.446       .  S
C2094      C2565   1.445       .  S
O2095     Cu2103   1.999       .  S
O2095      C2105   1.275       .  A
O2096     Cu2103   1.990       .  S
O2096      C2106   1.275       .  A
O2097     Cu2103   2.006       .  S
O2097      C2107   1.276       .  A
O2098     Cu2103   2.008       .  S
O2098      C2108   1.276       .  A
O2099     Cu2104   2.015       .  S
O2100     Cu2104   2.018       .  S
O2101     Cu2104   1.990       .  S
O2102     Cu2104   1.992       .  S
C2105      C2560   1.422       .  S
C2106      C2561   1.416       .  S
C2107      C2555   1.439       .  S
C2108      C2553   1.440       .  S
O2109     Cu2117   1.995       .  S
O2109      C2119   1.275       .  A
O2110      C2120   1.275       .  A
O2111     Cu2117   2.007   1_545  S
O2111      C2121   1.276       .  A
O2112     Cu2117   2.009       .  S
O2112      C2122   1.276       .  A
O2113     Cu2118   2.028       .  S
O2113      C2122   1.279   1_545  A
O2114     Cu2118   2.027       .  S
O2114      C2121   1.279       .  A
O2115      C2120   1.274       .  A
O2116     Cu2118   1.994   1_565  S
O2116      C2119   1.274       .  A
Cu2117    Cu2118   2.382   1_565  S
C2119      C2543   1.423       .  S
C2120      C2546   1.422       .  S
C2121      C2547   1.440       .  S
C2122      C2549   1.443       .  S
O2123     Cu2131   2.000       .  S
O2123      C2133   1.275       .  A
O2124     Cu2131   1.995       .  S
O2124      C2134   1.275       .  A
O2125     Cu2131   2.022       .  S
O2125      C2135   1.278       .  A
O2126     Cu2131   2.024       .  S
O2126      C2136   1.278       .  A
O2127     Cu2132   2.026       .  S
O2127      C2136   1.279       .  A
O2128     Cu2132   2.024       .  S
O2128      C2135   1.278       .  A
O2129     Cu2132   1.992       .  S
O2129      C2134   1.273       .  A
O2130     Cu2132   1.989       .  S
O2130      C2133   1.274       .  A
Cu2131    Cu2132   2.380       .  S
C2133      C2544   1.423       .  S
C2134      C2545   1.422       .  S
C2135      C2538   1.445       .  S
C2136      C2539   1.448       .  S
O2137     Cu2145   1.996       .  S
O2138     Cu2145   2.002       .  S
O2140     Cu2145   2.062       .  S
O2141     Cu2146   2.051   1_565  S
O2141      C2150   1.283       .  A
O2142      C2149   1.281       .  A
O2143     Cu2146   2.014       .  S
O2143      C2148   1.276       .  A
O2144     Cu2146   2.011       .  S
O2144      C2147   1.277       .  A
C2147      C2533   1.482       .  S
C2148      C2568   1.446       .  S
C2149      C2529   1.498       .  S
C2150      C2525   1.498       .  S
O2151     Cu2159   2.025       .  S
O2152     Cu2159   2.030       .  S
O2153     Cu2159   2.032       .  S
O2154     Cu2159   2.029       .  S
O2155     Cu2160   2.037       .  S
O2155      C2164   1.280       .  A
O2156     Cu2160   2.034       .  S
O2156      C2163   1.280       .  A
O2157     Cu2160   2.024       .  S
O2157      C2162   1.279       .  A
O2158     Cu2160   2.020       .  S
O2158      C2161   1.277       .  A
C2161      C2558   1.440       .  S
C2162      C2521   1.483       .  S
C2163      C2530   1.497       .  S
C2164      C2526   1.496       .  S
O2165     Cu2173   2.011       .  S
O2165      C2175   1.276       .  A
O2166     Cu2173   2.012       .  S
O2166      C2176   1.277       .  A
O2167     Cu2173   2.067       .  S
O2167      C2177   1.286       .  A
O2168      C2178   1.286       .  A
O2169      C2178   1.277       .  A
O2170     Cu2174   2.018       .  S
O2170      C2177   1.277       .  A
O2171     Cu2174   2.034       .  S
O2171      C2176   1.281       .  A
O2172     Cu2174   2.029       .  S
O2172      C2175   1.279       .  A
Cu2173    Cu2174   2.370       .  S
C2175      C2552   1.444       .  S
C2176      C2517   1.486       .  S
C2177      C2509   1.499       .  S
C2178      C2513   1.499       .  S
O2179     Cu2187   2.043       .  S
O2179      C2189   1.281       .  A
O2180     Cu2187   2.045       .  S
O2180      C2190   1.283       .  A
O2181     Cu2187   2.017       .  S
O2181      C2191   1.276       .  A
O2182     Cu2187   2.015       .  S
O2182      C2192   1.276       .  A
O2183     Cu2188   2.069       .  S
O2183      C2192   1.286       .  A
O2184     Cu2188   2.070       .  S
O2184      C2191   1.286       .  A
O2185     Cu2188   1.999       .  S
O2185      C2190   1.274       .  A
O2186     Cu2188   2.004       .  S
O2186      C2189   1.274       .  A
Cu2187    Cu2188   2.368       .  S
C2189      C2542   1.447       .  S
C2190      C2505   1.484       .  S
C2191      C2514   1.499       .  S
C2192      C2510   1.499       .  S
O2193      C2203   1.283       .  A
O2194     Cu2201   2.048   1_655  S
O2194      C2204   1.282       .  A
O2195     Cu2201   2.005   1_655  S
O2195      C2205   1.276   1_655  A
O2196     Cu2201   2.011       .  S
O2196      C2206   1.276       .  A
O2197     Cu2202   2.026       .  S
O2198     Cu2202   2.027       .  S
O2199     Cu2202   2.036   1_655  S
C2203      C2493   1.496       .  S
C2204      C2489   1.498       .  S
C2205      C2497   1.481   1_454  S
C2206      C2504   1.443       .  S
O2207     Cu2215   2.043       .  S
O2207      C2217   1.282       .  A
O2208      C2218   1.282       .  A
O2210     Cu2215   2.011       .  S
O2210      C2220   1.276       .  A
O2211     Cu2216   2.021       .  S
O2211      C2220   1.278       .  A
O2212     Cu2216   2.027       .  S
O2212      C2219   1.281       .  A
O2213      C2218   1.279       .  A
O2214     Cu2216   2.034       .  S
O2214      C2217   1.280       .  A
Cu2215    Cu2216   2.368       .  S
C2217      C2477   1.496       .  S
C2218      C2473   1.498       .  S
C2219      C2482   1.485   1_554  S
C2220      C2485   1.441       .  S
O2221     Cu2229   2.016       .  S
O2222     Cu2229   2.015       .  S
O2223     Cu2229   2.040       .  S
O2224     Cu2229   2.036       .  S
O2225     Cu2230   2.032       .  S
O2225      C2234   1.280       .  A
O2226     Cu2230   2.034       .  S
O2226      C2233   1.280       .  A
O2227     Cu2230   2.019       .  S
O2227      C2232   1.278       .  A
O2228     Cu2230   2.022       .  S
O2228      C2231   1.280       .  A
C2231      C2465   1.479   1_554  S
C2232      C2472   1.437       .  S
C2233      C2490   1.498       .  S
C2234      C2494   1.496       .  S
O2235     Cu2243   2.033       .  S
O2235      C2245   1.279       .  A
O2236     Cu2243   2.029       .  S
O2236      C2246   1.279       .  A
O2237     Cu2243   2.034       .  S
O2237      C2247   1.280       .  A
O2238     Cu2243   2.037       .  S
O2238      C2248   1.282       .  A
O2239     Cu2244   1.999       .  S
O2239      C2248   1.275       .  A
O2240     Cu2244   2.005       .  S
O2240      C2247   1.275       .  A
O2241     Cu2244   2.050       .  S
O2241      C2246   1.283       .  A
O2242     Cu2244   2.045       .  S
O2242      C2245   1.283       .  A
Cu2243    Cu2244   2.369       .  S
C2245      C2478   1.497       .  S
C2246      C2474   1.497       .  S
C2247      C2461   1.443       .  S
C2248      C2457   1.480   1_554  S
O2249     Cu2257   1.981   1_655  S
O2249      C2259   1.273       .  A
O2250      C2260   1.274   1_565  A
O2251     Cu2257   2.022   1_665  S
O2251      C2261   1.278   1_565  A
O2252     Cu2257   2.018       .  S
O2252      C2262   1.278       .  A
O2253     Cu2258   2.028       .  S
O2254     Cu2258   2.029       .  S
O2256     Cu2258   1.985   1_655  S
C2259      C2453   1.414       .  S
C2260      C2455   1.419       .  S
C2261      C2564   1.446       .  S
C2262      C2501   1.443       .  S
O2263      C2273   1.273       .  A
O2264     Cu2271   1.984       .  S
O2264      C2274   1.274       .  A
O2265     Cu2271   2.020       .  S
O2266     Cu2271   2.019       .  S
O2266      C2276   1.278       .  A
O2267     Cu2272   2.006       .  S
O2268     Cu2272   2.005       .  S
O2268      C2275   1.275       .  A
O2269      C2274   1.275       .  A
O2270     Cu2272   1.994       .  S
O2270      C2273   1.275       .  A
C2273      C2449   1.418       .  S
C2274      C2451   1.420       .  S
C2275      C2554   1.440       .  S
C2276      C2488   1.441       .  S
O2277     Cu2285   1.987       .  S
O2278     Cu2285   1.986       .  S
O2279     Cu2285   2.014       .  S
O2280     Cu2285   2.014       .  S
O2281     Cu2286   2.004   1_545  S
O2281      C2290   1.275       .  A
O2282     Cu2286   2.009       .  S
O2282      C2289   1.276   1_565  A
O2283     Cu2286   1.992       .  S
O2283      C2288   1.274   1_565  A
O2284     Cu2286   1.986   1_545  S
O2284      C2287   1.274       .  A
C2287      C2454   1.414       .  S
C2288      C2456   1.419       .  S
C2289      C2548   1.440       .  S
C2290      C2469   1.437       .  S
O2291     Cu2299   1.994       .  S
O2291      C2301   1.275       .  A
O2292     Cu2299   1.993       .  S
O2292      C2302   1.274       .  A
O2293     Cu2299   2.018       .  S
O2293      C2303   1.277       .  A
O2294     Cu2299   2.017       .  S
O2294      C2304   1.277       .  A
O2295     Cu2300   2.025       .  S
O2295      C2304   1.279       .  A
O2296     Cu2300   2.027       .  S
O2296      C2303   1.279       .  A
O2297     Cu2300   1.984       .  S
O2297      C2302   1.273       .  A
O2298     Cu2300   1.990       .  S
O2298      C2301   1.273       .  A
Cu2299    Cu2300   2.381       .  S
C2301      C2452   1.420       .  S
C2302      C2450   1.418       .  S
C2303      C2537   1.445       .  S
C2304      C2464   1.444       .  S
O2305     Cu2313   2.023       .  S
O2306     Cu2313   2.021       .  S
O2307     Cu2313   2.042   1_655  S
O2309      C2318   1.282       .  A
O2310     Cu2314   2.033       .  S
O2310      C2317   1.280       .  A
O2311     Cu2314   2.020       .  S
O2311      C2316   1.278       .  A
O2312     Cu2314   2.026       .  S
O2312      C2315   1.281       .  A
C2315      C2498   1.482       .  S
C2316      C2589   1.441       .  S
C2317      C2441   1.499       .  S
C2318      C2445   1.499       .  S
O2319      C2329   1.283       .  A
O2320     Cu2327   2.068       .  S
O2320      C2330   1.285       .  A
O2321     Cu2327   2.008       .  S
O2321      C2331   1.275       .  A
O2322     Cu2327   1.999       .  S
O2322      C2332   1.275       .  A
O2323     Cu2328   2.042       .  S
O2323      C2332   1.282       .  A
O2324     Cu2328   2.038       .  S
O2324      C2331   1.280       .  A
O2325     Cu2328   2.017       .  S
O2325      C2330   1.277       .  A
O2326      C2329   1.280       .  A
Cu2327    Cu2328   2.366       .  S
C2329      C2433   1.500       .  S
C2330      C2438   1.498       .  S
C2331      C2584   1.446       .  S
C2332      C2481   1.482       .  S
O2333     Cu2341   2.047       .  S
O2333      C2343   1.282       .  A
O2334     Cu2341   2.044       .  S
O2334      C2344   1.283       .  A
O2335     Cu2341   2.006       .  S
O2335      C2345   1.276       .  A
O2336     Cu2341   2.010       .  S
O2336      C2346   1.276       .  A
O2337     Cu2342   2.026       .  S
O2338     Cu2342   2.025       .  S
O2339     Cu2342   2.040       .  S
O2340     Cu2342   2.035       .  S
C2343      C2446   1.497       .  S
C2344      C2442   1.497       .  S
C2345      C2466   1.478       .  S
C2346      C2573   1.443       .  S
O2347     Cu2355   2.009       .  S
O2347      C2357   1.275       .  A
O2348     Cu2355   2.009       .  S
O2348      C2358   1.276       .  A
O2349     Cu2355   2.053       .  S
O2349      C2359   1.284       .  A
O2350     Cu2355   2.050       .  S
O2350      C2360   1.283       .  A
O2351     Cu2356   2.035       .  S
O2351      C2360   1.279       .  A
O2352     Cu2356   2.031       .  S
O2352      C2359   1.279       .  A
O2353     Cu2356   2.029       .  S
O2353      C2358   1.282       .  A
O2354     Cu2356   2.023       .  S
O2354      C2357   1.278       .  A
Cu2355    Cu2356   2.369       .  S
C2357      C2572   1.441       .  S
C2358      C2458   1.483       .  S
C2359      C2437   1.500       .  S
C2360      C2434   1.499       .  S
O2361      C2371   1.280       .  A
O2362     Cu2369   2.042   1_565  S
O2362      C2372   1.281       .  A
O2363     Cu2369   2.021       .  S
O2363      C2373   1.277       .  A
O2364     Cu2369   2.024       .  S
O2364      C2374   1.280       .  A
O2365     Cu2370   2.037       .  S
O2366     Cu2370   2.029       .  S
O2367     Cu2370   2.031       .  S
C2371      C2429   1.498       .  S
C2372      C2425   1.498       .  S
C2373      C2624   1.441       .  S
C2374      C2534   1.482       .  S
O2375     Cu2383   2.039       .  S
O2375      C2385   1.281       .  A
O2376     Cu2383   2.042       .  S
O2376      C2386   1.281       .  A
O2377     Cu2383   2.030       .  S
O2377      C2387   1.280       .  A
O2378     Cu2383   2.031       .  S
O2378      C2388   1.279       .  A
O2379     Cu2384   2.002       .  S
O2380     Cu2384   1.995       .  S
O2381     Cu2384   2.049       .  S
O2382     Cu2384   2.055       .  S
C2385      C2430   1.497       .  S
C2386      C2426   1.496       .  S
C2387      C2522   1.480       .  S
C2388      C2614   1.445       .  S
O2389     Cu2397   2.075       .  S
O2389      C2399   1.287       .  A
O2390      C2400   1.286       .  A
O2391     Cu2397   2.009       .  S
O2391      C2401   1.276       .  A
O2392     Cu2397   2.007       .  S
O2392      C2402   1.275       .  A
O2393     Cu2398   2.039       .  S
O2393      C2402   1.281       .  A
O2394     Cu2398   2.041       .  S
O2394      C2401   1.282       .  A
O2395      C2400   1.277       .  A
O2396     Cu2398   2.011       .  S
O2396      C2399   1.275       .  A
Cu2397    Cu2398   2.368       .  S
C2399      C2418   1.499       .  S
C2400      C2421   1.500       .  S
C2401      C2518   1.487       .  S
C2402      C2605   1.447       .  S
O2403     Cu2411   2.007       .  S
O2403      C2413   1.275       .  A
O2404     Cu2411   2.005       .  S
O2404      C2414   1.275       .  A
O2405     Cu2411   2.071       .  S
O2405      C2415   1.287       .  A
O2406     Cu2411   2.072       .  S
O2406      C2416   1.286       .  A
O2407     Cu2412   2.014       .  S
O2407      C2416   1.276       .  A
O2408     Cu2412   2.015       .  S
O2408      C2415   1.276       .  A
O2409     Cu2412   2.040       .  S
O2409      C2414   1.283       .  A
O2410     Cu2412   2.035       .  S
O2410      C2413   1.280       .  A
Cu2411    Cu2412   2.369       .  S
C2413      C2598   1.445       .  S
C2414      C2506   1.485       .  S
C2415      C2417   1.500       .  S
C2416      C2422   1.499       .  S
C2417      C2418   1.347       .  D
C2417      H2419   1.086       .  S
C2418      H2420   1.087       .  S
C2421      C2422   1.349       .  D
C2421      H2423   1.086       .  S
C2422      H2424   1.087       .  S
C2425      C2426   1.353       .  D
C2426      H2428   1.086       .  S
C2429      C2430   1.354       .  D
C2430      H2432   1.086       .  S
C2433      C2434   1.356       .  D
C2433      H2435   1.086       .  S
C2434      H2436   1.084       .  S
C2437      C2438   1.350       .  D
C2437      H2439   1.086       .  S
C2438      H2440   1.086       .  S
C2441      C2442   1.355       .  D
C2441      H2443   1.086       .  S
C2445      C2446   1.354       .  D
C2445      H2447   1.086   1_545  S
C2449      C2450   1.196       .  T
C2451      C2452   1.197       .  T
C2453      C2454   1.193       .  T
C2455      C2456   1.196       .  T
C2457      C2458   1.343       .  D
C2457      H2459   1.087       .  S
C2458      H2460   1.086       .  S
C2461      C2462   1.211       .  T
C2462      C2463   1.420       .  S
C2463      C2464   1.211       .  T
C2465      C2466   1.344       .  D
C2466      H2468   1.087       .  S
C2469      C2470   1.207       .  T
C2473      C2474   1.351       .  D
C2473      H2475   1.086       .  S
C2474      H2476   1.086       .  S
C2477      C2478   1.354       .  D
C2477      H2479   1.086       .  S
C2478      H2480   1.086       .  S
C2481      C2482   1.344       .  D
C2482      H2484   1.086       .  S
C2485      C2486   1.209       .  T
C2486      C2487   1.417       .  S
C2487      C2488   1.209       .  T
C2489      C2490   1.352       .  D
C2490      H2492   1.086       .  S
C2493      C2494   1.355       .  D
C2494      H2496   1.086       .  S
C2497      C2498   1.343       .  D
C2501      C2502   1.210       .  T
C2505      C2506   1.343       .  D
C2505      H2507   1.086       .  S
C2506      H2508   1.085       .  S
C2509      C2510   1.348       .  D
C2509      H2511   1.086       .  S
C2510      H2512   1.084       .  S
C2513      C2514   1.348       .  D
C2513      H2515   1.086       .  S
C2514      H2516   1.086       .  S
C2517      C2518   1.352       .  D
C2518      H2520   1.086       .  S
C2521      C2522   1.346       .  D
C2521      H2523   1.085       .  S
C2525      C2526   1.355       .  D
C2525      H2527   1.084       .  S
C2529      C2530   1.353       .  D
C2529      H2531   1.086       .  S
C2533      C2534   1.345       .  D
C2537      C2538   1.212       .  T
C2539      C2540   1.213       .  T
C2540      C2541   1.424       .  S
C2541      C2542   1.213       .  T
C2543      C2544   1.198       .  T
C2545      C2546   1.198       .  T
C2547      C2548   1.209       .  T
C2549      C2550   1.210       .  T
C2553      C2554   1.209       .  T
C2555      C2556   1.208       .  T
C2559      C2560   1.198       .  T
C2561      C2562   1.194       .  T
C2563      C2564   1.212       .  T
C2565      C2566   1.212       .  T
C2569      C2570   1.209       .  T
C2570      C2571   1.418       .  S
C2571      C2572   1.209       .  T
C2575      C2576   1.210       .  T
C2577      C2578   1.195       .  T
C2579      C2580   1.197       .  T
C2581      C2582   1.213       .  T
C2585      C2586   1.194       .  T
C2587      C2588   1.194       .  T
C2593      C2594   1.211       .  T
C2595      C2596   1.211       .  T
C2596      C2597   1.421       .  S
C2597      C2598   1.211       .  T
C2599      C2600   1.198       .  T
C2601      C2602   1.195       .  T
C2603      C2604   1.212       .  T
C2605      C2606   1.213       .  T
C2609      C2610   1.214       .  T
C2611      C2612   1.212       .  T
C2612      C2613   1.421       .  S
C2613      C2614   1.211       .  T
C2615      C2616   1.197       .  T
C2617      C2618   1.197       .  T
C2619      C2620   1.211       .  T
C2621      C2622   1.209       .  T
