geometry optimzed in LAMMPS
_audit_creation_date              2020-11-30 
_audit_creation_method            'lammps2cif' 
_symmetry_space_group_name_H-M    'P1' 
_symmetry_Int_Tables_number       1 
_symmetry_cell_setting            triclinic 
loop_ 
_symmetry_equiv_pos_as_xyz 
  x,y,z 
_cell_length_a                    32.09301298 
_cell_length_b                    32.09046124561044 
_cell_length_c                    64.16686726082125 
_cell_angle_alpha                 89.84395435727092 
_cell_angle_beta                  89.67313401768128 
_cell_angle_gamma                 89.55429888152193 
loop_ 
_atom_site_label 
_atom_site_type_symbol 
_atom_site_fract_x 
_atom_site_fract_y 
_atom_site_fract_z 
_atom_site_charge 
O1          O  0.03459454  0.93966890  0.12443611    -0.69900
O2          O  0.03432176  0.05805401  0.12433750    -0.70200
O3          O  0.03468781  0.99878986  0.15399001    -0.70000
O4          O  0.03422252  0.99889754  0.09478531    -0.70000
O5          O  0.96643587  0.99929697  0.09511106    -0.70000
O6          O  0.96690398  0.99913071  0.15431928    -0.70000
O7          O  0.96653708  0.05843863  0.12467676    -0.70000
O8          O  0.96680882  0.94003579  0.12474567    -0.70100
V9          V  0.03313759  0.99886721  0.12439224     1.35200
V10         V  0.96798817  0.99922547  0.12470578     1.35200
C11         C  0.00074962  0.91986893  0.12460612     0.79300
C12         C  0.00038955  0.07823283  0.12450869     0.79300
C13         C  0.00087732  0.99889978  0.16415119     0.79200
C14         C  0.00025052  0.99905976  0.08495659     0.79200
O15         O  0.96782680  0.49952390  0.09505641    -0.69900
O16         O  0.96746048  0.49929644  0.15425158    -0.70200
O17         O  0.96773409  0.55857703  0.12463264    -0.70000
O18         O  0.96756708  0.44018630  0.12469279    -0.70000
O19         O  0.03535212  0.43956608  0.12461344    -0.70000
O20         O  0.03552062  0.55795836  0.12453072    -0.70000
O21         O  0.03524868  0.49870067  0.15415977    -0.70000
O22         O  0.03561375  0.49888155  0.09495811    -0.70100
V23         V  0.96896573  0.49937453  0.12465260     1.35200
V24         V  0.03411690  0.49877872  0.12456404     1.35200
C25         C  0.00177449  0.49932148  0.08501508     0.79300
C26         C  0.00129409  0.49900957  0.16419573     0.79300
C27         C  0.00165480  0.57824968  0.12458710     0.79200
C28         C  0.00143188  0.41988911  0.12469607     0.79200
O29         O  0.53505990  0.99902020  0.15390384    -0.69900
O30         O  0.53416346  0.99854444  0.09470173    -0.70200
O31         O  0.53448765  0.05793846  0.12410144    -0.70000
O32         O  0.53477552  0.93956401  0.12447101    -0.70000
O33         O  0.46699227  0.93991581  0.12492964    -0.70000
O34         O  0.46670318  0.05832873  0.12454335    -0.70000
O35         O  0.46637656  0.99889581  0.09515664    -0.70000
O36         O  0.46727644  0.99940364  0.15434463    -0.70100
V37         V  0.53330309  0.99876328  0.12430678     1.35200
V38         V  0.46815407  0.99911717  0.12473850     1.35200
C39         C  0.50131099  0.99940467  0.16411807     0.79300
C40         C  0.50011337  0.99867765  0.08494129     0.79300
C41         C  0.50055870  0.07811685  0.12425533     0.79200
C42         C  0.50093863  0.91975313  0.12472009     0.79200
O43         O  0.53522050  0.49882002  0.09483100    -0.69900
O44         O  0.53548633  0.49841104  0.15401551    -0.70200
O45         O  0.53527706  0.43941923  0.12439555    -0.70000
O46         O  0.53541441  0.55781189  0.12443473    -0.70000
O47         O  0.46762821  0.55841537  0.12468076    -0.70000
O48         O  0.46749113  0.44002605  0.12468763    -0.70000
O49         O  0.46769803  0.49906245  0.15428564    -0.70000
O50         O  0.46743122  0.49937920  0.09508849    -0.70100
V51         V  0.53403045  0.49862757  0.12442591     1.35200
V52         V  0.46887832  0.49920907  0.12468222     1.35200
C53         C  0.50129078  0.49915789  0.08497159     0.79300
C54         C  0.50163912  0.49867618  0.16414036     0.79300
C55         C  0.50135980  0.41973820  0.12453060     0.79200
C56         C  0.50154397  0.57809806  0.12454639     0.79200
O57         O  0.96513394  0.00164515  0.84515059    -0.69900
O58         O  0.96557620  0.00108228  0.90433150    -0.70200
O59         O  0.96549328  0.06063841  0.87479091    -0.70000
O60         O  0.96526348  0.94222481  0.87466392    -0.70000
O61         O  0.03305126  0.94160098  0.87433286    -0.70000
O62         O  0.03327731  0.05996543  0.87448492    -0.70000
O63         O  0.03336444  0.00039897  0.90401759    -0.70000
O64         O  0.03292463  0.00101184  0.84483040    -0.70100
V65         V  0.96668170  0.00140969  0.87473240     1.35200
V66         V  0.03183427  0.00078180  0.87442679     1.35200
C67         C  0.99895262  0.00124058  0.83500584     0.79300
C68         C  0.99953934  0.00049805  0.91416328     0.79300
C69         C  0.99943268  0.08029302  0.87463384     0.79200
C70         C  0.99913373  0.92193611  0.87444562     0.79200
O71         O  0.03262244  0.56022675  0.87457326    -0.69900
O72         O  0.03297179  0.44185369  0.87434238    -0.70200
O73         O  0.03261955  0.50146922  0.84487127    -0.70000
O74         O  0.03296641  0.50066503  0.90406372    -0.70000
O75         O  0.96517995  0.50099240  0.90436457    -0.70000
O76         O  0.96483285  0.50179734  0.84515791    -0.70000
O77         O  0.96518757  0.44216858  0.87463407    -0.70000
O78         O  0.96483600  0.56058220  0.87486551    -0.70100
V79         V  0.03147284  0.50105408  0.87447259     1.35200
V80         V  0.96632248  0.50137158  0.87475394     1.35200
C81         C  0.99868320  0.58038596  0.87471969     0.79300
C82         C  0.99914442  0.42202249  0.87443132     0.79300
C83         C  0.99867238  0.50181552  0.83502301     0.79200
C84         C  0.99913923  0.50073446  0.91420633     0.79200
O85         O  0.46368865  0.94179987  0.87471131    -0.69900
O86         O  0.46437985  0.06021971  0.87478598    -0.70200
O87         O  0.46397265  0.00129636  0.84512294    -0.70000
O88         O  0.46406960  0.00076342  0.90432092    -0.70000
O89         O  0.53185830  0.99981181  0.90409428    -0.70000
O90         O  0.53175891  0.00041621  0.84490585    -0.70000
O91         O  0.53216534  0.05926353  0.87458031    -0.70000
O92         O  0.53147266  0.94090974  0.87447000    -0.70100
V93         V  0.46533957  0.00099553  0.87472224     1.35200
V94         V  0.53049032  0.00011090  0.87450860     1.35200
C95         C  0.49747827  0.92136706  0.87464754     0.79300
C96         C  0.49840603  0.07972180  0.87474066     0.79300
C97         C  0.49785380  0.00103229  0.83502227     0.79200
C98         C  0.49798469  0.00020559  0.91419462     0.79200
O99         O  0.53261739  0.55965505  0.87422931    -0.69900
O100        O  0.53350848  0.44127167  0.87420634    -0.70200
O101        O  0.53181259  0.50063278  0.84459498    -0.70000
O102        O  0.53428153  0.50025783  0.90378514    -0.70000
O103        O  0.46650883  0.50024824  0.90466813    -0.70000
O104        O  0.46404487  0.50067338  0.84548700    -0.70000
O105        O  0.46573776  0.44127659  0.87508645    -0.70000
O106        O  0.46484938  0.55968639  0.87513498    -0.70100
V107        V  0.53173605  0.50046019  0.87421171     1.35200
V108        V  0.46660141  0.50047567  0.87506854     1.35200
C109        C  0.49859405  0.57965911  0.87474623     0.79300
C110        C  0.49978094  0.42129166  0.87470180     0.79300
C111        C  0.49751450  0.50069482  0.83504631     0.79200
C112        C  0.50080060  0.50014321  0.91421244     0.79200
O113        O  0.06139423  0.96482059  0.37477248    -0.69900
O114        O  0.94299226  0.96450250  0.37468323    -0.70200
O115        O  0.00263239  0.96464350  0.34510832    -0.70000
O116        O  0.00170746  0.96464788  0.40432173    -0.70000
O117        O  0.00104675  0.03243753  0.40422855    -0.70000
O118        O  0.00188430  0.03243095  0.34500743    -0.70000
O119        O  0.94230093  0.03229187  0.37461140    -0.70000
O120        O  0.06066995  0.03260954  0.37465723    -0.70100
V121        V  0.00217714  0.96597118  0.37471486     1.35200
V122        V  0.00149792  0.03112371  0.37462357     1.35200
C123        C  0.08101735  0.99877689  0.37473981     0.79300
C124        C  0.92266197  0.99835092  0.37468393     0.79300
C125        C  0.00238877  0.99852897  0.33505899     0.79200
C126        C  0.00112782  0.99854222  0.41427040     0.79200
O127        O  0.00142632  0.46600017  0.40443417    -0.69900
O128        O  0.00251511  0.46446782  0.34522564    -0.70200
O129        O  0.06119258  0.46510950  0.37490126    -0.70000
O130        O  0.94281765  0.46531963  0.37475242    -0.70000
O131        O  0.94240422  0.53310417  0.37422217    -0.70000
O132        O  0.06080690  0.53289361  0.37438319    -0.70000
O133        O  0.00212521  0.53225499  0.34472123    -0.70000
O134        O  0.00101392  0.53378519  0.40390153    -0.70100
V135        V  0.00199374  0.46654010  0.37482040     1.35200
V136        V  0.00160931  0.53168963  0.37431818     1.35200
C137        C  0.00089591  0.50015808  0.41415970     0.79300
C138        C  0.00245864  0.49812311  0.33498349     0.79300
C139        C  0.08098685  0.49895827  0.37462160     0.79200
C140        C  0.92262669  0.49924158  0.37448701     0.79200
O141        O  0.44278278  0.96675936  0.37450600    -0.69900
O142        O  0.56115865  0.96638267  0.37437049    -0.70200
O143        O  0.50174599  0.96584352  0.40403579    -0.70000
O144        O  0.50214971  0.96733509  0.34482033    -0.70000
O145        O  0.50185141  0.03511860  0.34515153    -0.70000
O146        O  0.50142025  0.03362937  0.40435136    -0.70000
O147        O  0.56086217  0.03416603  0.37470818    -0.70000
O148        O  0.44245383  0.03454426  0.37482992    -0.70100
V149        V  0.50196117  0.96789752  0.37443467     1.35200
V150        V  0.50166068  0.03304599  0.37475022     1.35200
C151        C  0.42263431  0.00070785  0.37471742     0.79300
C152        C  0.58099781  0.00020208  0.37454608     0.79300
C153        C  0.50145590  0.99950073  0.41418643     0.79200
C154        C  0.50202461  0.00147912  0.33498966     0.79200
O155        O  0.44295008  0.46315416  0.37462152    -0.69900
O156        O  0.56135405  0.46341354  0.37457812    -0.70200
O157        O  0.50189734  0.46344564  0.40421280    -0.70000
O158        O  0.50239785  0.46313503  0.34500143    -0.70000
O159        O  0.50171209  0.53092760  0.34483581    -0.70000
O160        O  0.50123803  0.53123679  0.40401964    -0.70000
O161        O  0.56066962  0.53120296  0.37439141    -0.70000
O162        O  0.44229821  0.53094418  0.37444871    -0.70100
V163        V  0.50213901  0.46459963  0.37460212     1.35200
V164        V  0.50149435  0.52975466  0.37442956     1.35200
C165        C  0.42264050  0.49701415  0.37449912     0.79300
C166        C  0.58099737  0.49735711  0.37449166     0.79300
C167        C  0.50152021  0.49740611  0.41410847     0.79200
C168        C  0.50207717  0.49699162  0.33492877     0.79200
O169        O  0.99902318  0.96559923  0.65431418    -0.69900
O170        O  0.99953467  0.96587494  0.59513634    -0.70200
O171        O  0.05850350  0.96605641  0.62471698    -0.70000
O172        O  0.94009145  0.96549772  0.62477021    -0.70000
O173        O  0.93928207  0.03328827  0.62474185    -0.70000
O174        O  0.05763693  0.03384460  0.62471824    -0.70000
O175        O  0.99872165  0.03366518  0.59510828    -0.70000
O176        O  0.99815075  0.03339332  0.65431891    -0.70100
V177        V  0.99927807  0.96707569  0.62473029     1.35200
V178        V  0.99846959  0.03223086  0.62471831     1.35200
C179        C  0.99849882  0.99943293  0.66430247     0.79300
C180        C  0.99913873  0.99980062  0.58512869     0.79300
C181        C  0.07805743  0.00005583  0.62474963     0.79200
C182        C  0.91970605  0.99931538  0.62477384     0.79200
O183        O  0.05757190  0.53526039  0.62435989    -0.69900
O184        O  0.93917274  0.53577611  0.62463031    -0.70200
O185        O  0.99830968  0.53573932  0.65409227    -0.70000
O186        O  0.99840220  0.53533692  0.59490260    -0.70000
O187        O  0.99867707  0.46754709  0.59509058    -0.70000
O188        O  0.99850026  0.46794949  0.65431025    -0.70000
O189        O  0.93941092  0.46798611  0.62481411    -0.70000
O190        O  0.05780268  0.46747305  0.62458677    -0.70100
V191        V  0.99837220  0.53420607  0.62450099     1.35200
V192        V  0.99859641  0.46905280  0.62469758     1.35200
C193        C  0.07767805  0.50127915  0.62443987     0.79300
C194        C  0.91930962  0.50196511  0.62474266     0.79300
C195        C  0.99838525  0.50192444  0.66419421     0.79200
C196        C  0.99851410  0.50139137  0.58500289     0.79200
O197        O  0.43985278  0.96730869  0.62488001    -0.69900
O198        O  0.55824197  0.96673790  0.62473401    -0.70200
O199        O  0.49885078  0.96751380  0.65440125    -0.70000
O200        O  0.49927610  0.96655627  0.59519376    -0.70000
O201        O  0.49909711  0.03434442  0.59483930    -0.70000
O202        O  0.49863069  0.03530284  0.65402941    -0.70000
O203        O  0.55803952  0.03452616  0.62438087    -0.70000
O204        O  0.43964208  0.03509452  0.62450651    -0.70100
V205        V  0.49904658  0.96834458  0.62479220     1.35200
V206        V  0.49885191  0.03349663  0.62444268     1.35200
C207        C  0.41975736  0.00129376  0.62474943     0.79300
C208        C  0.57812253  0.00053710  0.62454454     0.79300
C209        C  0.49867652  0.00157745  0.66420624     0.79200
C210        C  0.49931303  0.00029826  0.58502373     0.79200
O211        O  0.49864152  0.53434768  0.59482756    -0.69900
O212        O  0.49765724  0.53472001  0.65404555    -0.70200
O213        O  0.55731912  0.53487816  0.62447770    -0.70000
O214        O  0.43895471  0.53420916  0.62437730    -0.70000
O215        O  0.43984206  0.46642190  0.62457745    -0.70000
O216        O  0.55823347  0.46708850  0.62467433    -0.70000
O217        O  0.49856593  0.46693291  0.65423937    -0.70000
O218        O  0.49954402  0.46655849  0.59503215    -0.70100
V219        V  0.49815835  0.53322039  0.62443810     1.35200
V220        V  0.49902689  0.46806822  0.62462912     1.35200
C221        C  0.49933352  0.50038489  0.58493620     0.79300
C222        C  0.49789875  0.50088485  0.66414026     0.79300
C223        C  0.57775527  0.50109993  0.62455149     0.79200
C224        C  0.41941046  0.50021103  0.62447279     0.79200
C225        C  0.79219950  0.50221821  0.62452629     0.18900
C226        C  0.76978641  0.52613287  0.63905611    -0.10300
C227        C  0.72620530  0.52599513  0.63897929    -0.11100
C228        C  0.70485113  0.50194198  0.62437384     0.20400
C229        C  0.72726087  0.47808901  0.60981571    -0.13100
C230        C  0.77084554  0.47822641  0.60989264    -0.11400
C231        C  0.66000885  0.50163393  0.62438346     0.01400
C232        C  0.62244674  0.50137033  0.62446295    -0.31400
C233        C  0.83704556  0.50222653  0.62465766     0.02800
C234        C  0.87461130  0.50214567  0.62473815    -0.33100
H235        H  0.78597960  0.54480363  0.65043675     0.13800
H236        H  0.70918618  0.54455562  0.65030394     0.13600
H237        H  0.71106479  0.45938026  0.59845154     0.13500
H238        H  0.78786621  0.45962710  0.59858437     0.12500
C239        C  0.20485119  0.50069404  0.62441059     0.18900
C240        C  0.22661412  0.47659919  0.63905541    -0.10300
C241        C  0.27021072  0.47637056  0.63907998    -0.11100
C242        C  0.29224527  0.50023568  0.62445861     0.20400
C243        C  0.27048178  0.52433933  0.60981839    -0.13100
C244        C  0.22688707  0.52456773  0.60979372    -0.11400
C245        C  0.33711644  0.50002933  0.62448120     0.01400
C246        C  0.37469556  0.50000593  0.62447643    -0.31400
C247        C  0.15997904  0.50091589  0.62438352     0.02800
C248        C  0.12239835  0.50108416  0.62438738    -0.33100
H249        H  0.20990171  0.45802495  0.65043090     0.13800
H250        H  0.28670934  0.45762623  0.65047496     0.13600
H251        H  0.28719329  0.54291914  0.59844471     0.13500
H252        H  0.21038976  0.54331748  0.59840037     0.12500
C253        C  0.79259246  0.99957226  0.62475631     0.18900
C254        C  0.77041678  0.99102065  0.64312939    -0.10300
C255        C  0.72682987  0.99124628  0.64306675    -0.11100
C256        C  0.70523551  0.00002841  0.62463182     0.20400
C257        C  0.72741112  0.00862093  0.60626391    -0.13100
C258        C  0.77099695  0.00839490  0.60632651    -0.11400
C259        C  0.66038705  0.00019481  0.62456363     0.01400
C260        C  0.62282037  0.00033182  0.62453498    -0.31400
C261        C  0.83744226  0.99929977  0.62480715     0.02800
C262        C  0.87500969  0.99918343  0.62480702    -0.33100
H263        H  0.78679833  0.98417558  0.65746914     0.13800
H264        H  0.70999457  0.98456961  0.65735851     0.13600
H265        H  0.71102997  0.01546112  0.59192342     0.13500
H266        H  0.78783146  0.01506633  0.59203378     0.12500
C267        C  0.29259163  0.00122700  0.62510103     0.18900
C268        C  0.27123455  0.96624961  0.61786824    -0.10300
C269        C  0.22764906  0.96602781  0.61784845    -0.11100
C270        C  0.20520726  0.00078196  0.62506222     0.20400
C271        C  0.22655757  0.03574780  0.63232407    -0.13100
C272        C  0.27015510  0.03596966  0.63234389    -0.11400
C273        C  0.16034224  0.00056601  0.62496909     0.01400
C274        C  0.12276901  0.00031111  0.62485468    -0.31400
C275        C  0.33745928  0.00146925  0.62503170     0.02800
C276        C  0.37503850  0.00148182  0.62490356    -0.33100
H277        H  0.28825750  0.93921580  0.61223288     0.13800
H278        H  0.21147159  0.93882526  0.61219969     0.13600
H279        H  0.20952695  0.06279381  0.63793886     0.13500
H280        H  0.28633986  0.06318471  0.63797219     0.12500
C281        C  0.50073109  0.49956381  0.52136263     0.18900
C282        C  0.46403824  0.50806748  0.51035958    -0.10300
C283        C  0.46427387  0.50755641  0.48856506    -0.11100
C284        C  0.50120309  0.49853093  0.47767549     0.20400
C285        C  0.53791792  0.49006897  0.48867454    -0.13100
C286        C  0.53768235  0.49058028  0.51047505    -0.11400
C287        C  0.50139201  0.49795599  0.45524779     0.01400
C288        C  0.50144958  0.49758934  0.43646116    -0.31400
C289        C  0.50039912  0.49996175  0.54379302     0.02800
C290        C  0.49992663  0.50021519  0.56258123    -0.33100
H291        H  0.43529457  0.51504786  0.51862022     0.13800
H292        H  0.43571262  0.51415900  0.48021736     0.13600
H293        H  0.56665198  0.48306655  0.48040994     0.13500
H294        H  0.56623437  0.48395592  0.51882626     0.12500
C295        C  0.50058190  0.99914777  0.47775979     0.18900
C296        C  0.46288473  0.99570081  0.48873140    -0.10300
C297        C  0.46266332  0.99594650  0.51053072    -0.11100
C298        C  0.50013411  0.99964232  0.52145025     0.20400
C299        C  0.53782590  0.00313422  0.51047813    -0.13100
C300        C  0.53804736  0.00288770  0.48867929    -0.11400
C301        C  0.49989649  0.99981922  0.54388119     0.01400
C302        C  0.49963002  0.99998162  0.56266976    -0.31400
C303        C  0.50082983  0.99895443  0.45532913     0.02800
C304        C  0.50112146  0.99902339  0.43654032    -0.33100
H305        H  0.43372947  0.99282820  0.48044585     0.13800
H306        H  0.43334024  0.99324563  0.51885861     0.13600
H307        H  0.56697968  0.00602545  0.51876327     0.13500
H308        H  0.56736905  0.00560612  0.48035156     0.12500
C309        C  0.99910419  0.50155632  0.47772949     0.18900
C310        C  0.96135693  0.50544896  0.48866665    -0.10300
C311        C  0.96111127  0.50549549  0.51047256    -0.11100
C312        C  0.99860784  0.50164280  0.52142401     0.20400
C313        C  0.03634290  0.49785746  0.51048096    -0.13100
C314        C  0.03658853  0.49781145  0.48868613    -0.11400
C315        C  0.99840657  0.50146438  0.54385721     0.01400
C316        C  0.99843115  0.50132321  0.56264694    -0.31400
C317        C  0.99944296  0.50121716  0.45529781     0.02800
C318        C  0.00007513  0.50076093  0.43651119    -0.33100
H319        H  0.93218549  0.50836674  0.48035207     0.13800
H320        H  0.93175255  0.50845756  0.51877796     0.13600
H321        H  0.06551652  0.49487700  0.51878864     0.13500
H322        H  0.06594907  0.49478726  0.48038781     0.12500
C323        C  0.79549279  0.49894834  0.37470525     0.18900
C324        C  0.77324573  0.52918729  0.36345982    -0.10300
C325        C  0.72966194  0.52880435  0.36344435    -0.11100
C326        C  0.70812827  0.49818255  0.37467501     0.20400
C327        C  0.73037332  0.46798818  0.38595420    -0.13100
C328        C  0.77396063  0.46837132  0.38596969    -0.11400
C329        C  0.66327411  0.49774241  0.37460743     0.01400
C330        C  0.62570442  0.49748763  0.37453778    -0.31400
C331        C  0.84034941  0.49920064  0.37462241     0.02800
C332        C  0.87792103  0.49929084  0.37453408    -0.33100
H333        H  0.78957155  0.55297572  0.35469771     0.13800
H334        H  0.71278082  0.55231031  0.35467593     0.13600
H335        H  0.71404644  0.44417655  0.39469976     0.13500
H336        H  0.79084506  0.44484238  0.39472159     0.12500
C337        C  0.20813492  0.49839933  0.37415784     0.18900
C338        C  0.22997002  0.53102872  0.38345856    -0.10300
C339        C  0.27355664  0.53066239  0.38342575    -0.11100
C340        C  0.29551093  0.49766362  0.37409405     0.20400
C341        C  0.27368247  0.46509252  0.36473196    -0.13100
C342        C  0.23008575  0.46545897  0.36476473    -0.11400
C343        C  0.34036830  0.49718315  0.37420395     0.01400
C344        C  0.37793797  0.49697147  0.37436102    -0.31400
C345        C  0.16327281  0.49865529  0.37432847     0.02800
C346        C  0.12569787  0.49884218  0.37450285    -0.33100
H347        H  0.21332023  0.55666001  0.39075852     0.13800
H348        H  0.29011458  0.55601649  0.39070089     0.13600
H349        H  0.29033881  0.43943080  0.35746234     0.13500
H350        H  0.21352168  0.44007422  0.35751979     0.12500
C351        C  0.99933810  0.99905502  0.47785357     0.18900
C352        C  0.02041145  0.03029284  0.48866438    -0.10300
C353        C  0.02018539  0.03055312  0.51046104    -0.11100
C354        C  0.99888112  0.99957802  0.52154980     0.20400
C355        C  0.97770295  0.96839262  0.51074336    -0.13100
C356        C  0.97792874  0.96813239  0.48893903    -0.11400
C357        C  0.99891073  0.99972702  0.54398313     0.01400
C358        C  0.99905686  0.99983579  0.56277244    -0.31400
C359        C  0.99984769  0.99868692  0.45541946     0.02800
C360        C  0.00045877  0.99855012  0.43662912    -0.33100
H361        H  0.03705519  0.05435807  0.48025235     0.13800
H362        H  0.03665655  0.05481479  0.51865596     0.13600
H363        H  0.96112092  0.94429152  0.51916076     0.13500
H364        H  0.96151866  0.94383460  0.48073986     0.12500
C365        C  0.79552235  0.99861977  0.37486467     0.18900
C366        C  0.77332560  0.99563660  0.39367419    -0.10300
C367        C  0.72972772  0.99599935  0.39361919    -0.11100
C368        C  0.70814572  0.99935184  0.37475598     0.20400
C369        C  0.73035031  0.00231183  0.35595249    -0.13100
C370        C  0.77393505  0.00194911  0.35600751    -0.11400
C371        C  0.66328339  0.99974428  0.37468229     0.01400
C372        C  0.62570901  0.00001800  0.37459888    -0.31400
C373        C  0.84038252  0.99835391  0.37488944     0.02800
C374        C  0.87795595  0.99826892  0.37480132    -0.33100
H375        H  0.78969538  0.99305610  0.40834753     0.13800
H376        H  0.71287655  0.99368393  0.40825076     0.13600
H377        H  0.71398956  0.00490776  0.34127743     0.13500
H378        H  0.79077877  0.00427994  0.34137445     0.12500
C379        C  0.29550863  0.00032760  0.37493985     0.18900
C380        C  0.27301941  0.02657930  0.38839764    -0.10300
C381        C  0.22942998  0.02619320  0.38838698    -0.11100
C382        C  0.20814739  0.99955363  0.37491972     0.20400
C383        C  0.23064302  0.97329654  0.36147106    -0.13100
C384        C  0.27422304  0.97368239  0.36148185    -0.11400
C385        C  0.16329270  0.99919387  0.37487438     0.01400
C386        C  0.12572339  0.99893821  0.37480936    -0.31400
C387        C  0.34036036  0.00069771  0.37492501     0.02800
C388        C  0.37793024  0.00080884  0.37484098    -0.33100
H389        H  0.28915633  0.04730419  0.39887073     0.13800
H390        H  0.21235131  0.04663020  0.39885002     0.13600
H391        H  0.21451296  0.95257822  0.35099215     0.13500
H392        H  0.29129670  0.95325206  0.35101339     0.12500
C393        C  0.49626239  0.50106310  0.72774309     0.18900
C394        C  0.50500433  0.53769875  0.73866152    -0.10300
C395        C  0.50479735  0.53765374  0.76046450    -0.11100
C396        C  0.49584470  0.50097427  0.77145343     0.20400
C397        C  0.48696795  0.46436633  0.76053643    -0.13100
C398        C  0.48717394  0.46441169  0.73873067    -0.11400
C399        C  0.49608458  0.50084577  0.79389492     0.01400
C400        C  0.49660779  0.50077563  0.81268720    -0.31400
C401        C  0.49680419  0.50104229  0.70530080     0.02800
C402        C  0.49734045  0.50100307  0.68650580    -0.33100
H403        H  0.51206756  0.56621724  0.73033028     0.13800
H404        H  0.51171709  0.56613524  0.76874143     0.13600
H405        H  0.48001493  0.43582204  0.76886936     0.13500
H406        H  0.48036296  0.43590509  0.73045202     0.12500
C407        C  0.49795901  0.00232587  0.77145497     0.18900
C408        C  0.53403019  0.01354223  0.76045564    -0.10300
C409        C  0.53415504  0.01362480  0.73865544    -0.11100
C410        C  0.49820922  0.00249211  0.72776811     0.20400
C411        C  0.46211138  0.99138325  0.73876834    -0.13100
C412        C  0.46198684  0.99130009  0.76056535    -0.11400
C413        C  0.49840341  0.00228341  0.70534107     0.01400
C414        C  0.49853409  0.00196880  0.68655559    -0.31400
C415        C  0.49789561  0.00194802  0.79388343     0.02800
C416        C  0.49784248  0.00150806  0.81267025    -0.33100
H417        H  0.56201782  0.02212434  0.76872036     0.13800
H418        H  0.56223729  0.02226901  0.73030379     0.13600
H419        H  0.43414600  0.98272471  0.73050532     0.13500
H420        H  0.43392674  0.98257821  0.76891458     0.12500
C421        C  0.49803885  0.70681720  0.87512492     0.18900
C422        C  0.49392984  0.72864695  0.89392216    -0.10300
C423        C  0.49371659  0.77225475  0.89390557    -0.11100
C424        C  0.49761034  0.79420699  0.87509145     0.20400
C425        C  0.50177164  0.77236553  0.85630854    -0.13100
C426        C  0.50198482  0.72878033  0.85632511    -0.11400
C427        C  0.49736187  0.83907583  0.87502447     0.01400
C428        C  0.49728982  0.87665401  0.87484197    -0.31400
C429        C  0.49816452  0.66194955  0.87509114     0.02800
C430        C  0.49830474  0.62437270  0.87493530    -0.33100
H431        H  0.49087186  0.71198460  0.90855273     0.13800
H432        H  0.49050374  0.78882178  0.90852404     0.13600
H433        H  0.50482593  0.78901366  0.84167384     0.13500
H434        H  0.50519385  0.71222734  0.84170254     0.12500
C435        C  0.50043855  0.29417216  0.87506749     0.18900
C436        C  0.50070186  0.27218611  0.89396748    -0.10300
C437        C  0.50040816  0.22859034  0.89396906    -0.11100
C438        C  0.49984420  0.20681811  0.87507112     0.20400
C439        C  0.49971718  0.22881261  0.85618047    -0.13100
C440        C  0.50001098  0.27238839  0.85617888    -0.11400
C441        C  0.49925026  0.16197544  0.87503589     0.01400
C442        C  0.49875248  0.12441532  0.87490317    -0.31400
C443        C  0.50037351  0.33902324  0.87502537     0.02800
C444        C  0.50013994  0.37659224  0.87487436    -0.33100
H445        H  0.50103705  0.28871846  0.90866480     0.13800
H446        H  0.50052951  0.21189366  0.90866764     0.13600
H447        H  0.49930077  0.21229435  0.84148026     0.13500
H448        H  0.49980843  0.28907393  0.84147752     0.12500
C449        C  0.99854590  0.50245260  0.72776557     0.18900
C450        C  0.00973264  0.46629502  0.73873947    -0.10300
C451        C  0.00977263  0.46633112  0.76053516    -0.11100
C452        C  0.99862657  0.50252527  0.77145478     0.20400
C453        C  0.98748506  0.53870966  0.76048445    -0.13100
C454        C  0.98744383  0.53867307  0.73868238    -0.11400
C455        C  0.99857134  0.50247393  0.79388424     0.01400
C456        C  0.99856863  0.50222312  0.81267161    -0.31400
C457        C  0.99843052  0.50234064  0.70533571     0.02800
C458        C  0.99837631  0.50212799  0.68654804    -0.33100
H459        H  0.01837874  0.43812161  0.73045608     0.13800
H460        H  0.01844616  0.43818383  0.76886113     0.13600
H461        H  0.97881971  0.56687241  0.76877227     0.13500
H462        H  0.97874904  0.56680937  0.73035274     0.12500
C463        C  0.99859438  0.99935151  0.77149029     0.18900
C464        C  0.03630553  0.00051871  0.76040588    -0.10300
C465        C  0.03622370  0.00024955  0.73861533    -0.11100
C466        C  0.99843037  0.99880673  0.72783028     0.20400
C467        C  0.96072564  0.99743671  0.73891471    -0.13100
C468        C  0.96080762  0.99770568  0.76070695    -0.11400
C469        C  0.99834136  0.99899114  0.70541747     0.01400
C470        C  0.99835597  0.99925396  0.68663954    -0.31400
C471        C  0.99867083  0.00010180  0.79389885     0.02800
C472        C  0.99878243  0.00078054  0.81267226    -0.33100
H473        H  0.06569698  0.00177210  0.76859715     0.13800
H474        H  0.06555306  0.00129806  0.73018991     0.13600
H475        H  0.93133049  0.99629731  0.73072189     0.13500
H476        H  0.93147468  0.99677089  0.76913285     0.12500
C477        C  0.99914607  0.70749174  0.87443517     0.18900
C478        C  0.99466777  0.72939319  0.85564754    -0.10300
C479        C  0.99480548  0.77298437  0.85557015    -0.11100
C480        C  0.99942186  0.79484116  0.87428049     0.20400
C481        C  0.00402987  0.77293497  0.89305399    -0.13100
C482        C  0.00389172  0.72935489  0.89313144    -0.11400
C483        C  0.99926741  0.83968515  0.87424724     0.01400
C484        C  0.99911965  0.87724862  0.87431921    -0.31400
C485        C  0.99881139  0.66264797  0.87454606     0.02800
C486        C  0.99862298  0.62508309  0.87465992    -0.33100
H487        H  0.99100816  0.71279690  0.84109839     0.13800
H488        H  0.99123928  0.78961508  0.84096360     0.13600
H489        H  0.00763963  0.78952605  0.90760807     0.13500
H490        H  0.00740766  0.71273290  0.90774340     0.12500
C491        C  0.99963225  0.29485822  0.87428802     0.18900
C492        C  0.99918585  0.27297166  0.89321275    -0.10300
C493        C  0.99924521  0.22937952  0.89327896    -0.11100
C494        C  0.99975038  0.20746532  0.87442003     0.20400
C495        C  0.00024319  0.22934830  0.85549043    -0.13100
C496        C  0.00018367  0.27295021  0.85542424    -0.11400
C497        C  0.99967369  0.16259403  0.87450181     0.01400
C498        C  0.99955264  0.12501361  0.87458508    -0.31400
C499        C  0.99946624  0.33972784  0.87424565     0.02800
C500        C  0.99930167  0.37730706  0.87430576    -0.33100
H501        H  0.99876039  0.28958726  0.90788968     0.13800
H502        H  0.99886164  0.21278743  0.90800601     0.13600
H503        H  0.00063615  0.21272775  0.84081494     0.13500
H504        H  0.00053451  0.28954948  0.84069891     0.12500
C505        C  0.50185972  0.49815931  0.22769562     0.18900
C506        C  0.46418937  0.50097660  0.23876656    -0.10300
C507        C  0.46422532  0.50064812  0.26056344    -0.11100
C508        C  0.50193343  0.49749529  0.27137486     0.20400
C509        C  0.53960452  0.49472435  0.26030377    -0.13100
C510        C  0.53956843  0.49505269  0.23850788    -0.11400
C511        C  0.50198537  0.49713006  0.29379805     0.01400
C512        C  0.50205979  0.49694273  0.31258200    -0.31400
C513        C  0.50181348  0.49839278  0.20527173     0.02800
C514        C  0.50174490  0.49853656  0.18648745    -0.33100
H515        H  0.43485513  0.50339791  0.23055914     0.13800
H516        H  0.43491943  0.50282931  0.26897186     0.13600
H517        H  0.56893887  0.49229738  0.26851068     0.13500
H518        H  0.56887442  0.49286556  0.23010018     0.12500
C519        C  0.50170125  0.49945438  0.02142588     0.18900
C520        C  0.51488036  0.46394373  0.01048988    -0.10300
C521        C  0.51508646  0.46403558  0.98869198    -0.11100
C522        C  0.50212257  0.49964407  0.97775102     0.20400
C523        C  0.48900193  0.53516681  0.98868952    -0.13100
C524        C  0.48879506  0.53507465  0.01048313    -0.11400
C525        C  0.50206036  0.49969921  0.95533052     0.01400
C526        C  0.50166779  0.49987867  0.93655009    -0.31400
C527        C  0.50140760  0.49934734  0.04384621     0.02800
C528        C  0.50124633  0.49927195  0.06262851    -0.33100
H529        H  0.52493456  0.43623879  0.01880226     0.13800
H530        H  0.52527436  0.43639368  0.98038499     0.13600
H531        H  0.47889952  0.56285784  0.98038012     0.13500
H532        H  0.47855817  0.56270199  0.01878764     0.12500
C533        C  0.50179654  0.00186456  0.27139737     0.18900
C534        C  0.50689399  0.03905788  0.26020576    -0.10300
C535        C  0.50685254  0.03864350  0.23840024    -0.11100
C536        C  0.50171703  0.00103435  0.22769825     0.20400
C537        C  0.49657869  0.96386595  0.23889399    -0.13100
C538        C  0.49661908  0.96428034  0.26068965    -0.11400
C539        C  0.50170831  0.00053257  0.20526320     0.01400
C540        C  0.50160650  0.99996745  0.18647430    -0.31400
C541        C  0.50193013  0.00217959  0.29383464     0.02800
C542        C  0.50201704  0.00202320  0.31262781    -0.33100
H543        H  0.51091581  0.06830081  0.26832276     0.13800
H544        H  0.51083501  0.06757347  0.22990139     0.13600
H545        H  0.49256784  0.93461447  0.23078276     0.13500
H546        H  0.49264609  0.93534145  0.26918184     0.12500
C547        C  0.49850840  0.99959586  0.97773172     0.18900
C548        C  0.53196292  0.98135586  0.98842915    -0.10300
C549        C  0.53226193  0.98107776  0.01022169    -0.11100
C550        C  0.49910735  0.99903903  0.02140064     0.20400
C551        C  0.46565462  0.01728960  0.01070327    -0.13100
C552        C  0.46535588  0.01756784  0.98890904    -0.11400
C553        C  0.49944361  0.99878825  0.04381874     0.01400
C554        C  0.49975561  0.99866298  0.06259933    -0.31400
C555        C  0.49820680  0.99985170  0.95531512     0.02800
C556        C  0.49804670  0.00002254  0.93653507    -0.33100
H557        H  0.55775624  0.96737776  0.97993444     0.13800
H558        H  0.55828618  0.96689486  0.01834150     0.13600
H559        H  0.43986668  0.03127540  0.01919855     0.13500
H560        H  0.43933738  0.03175860  0.98078765     0.12500
C561        C  0.50154309  0.70523368  0.12451792     0.18900
C562        C  0.49072521  0.72702309  0.14267759    -0.10300
C563        C  0.49063038  0.77061143  0.14271715    -0.11100
C564        C  0.50135247  0.79260808  0.12459746     0.20400
C565        C  0.51218286  0.77082156  0.10643499    -0.13100
C566        C  0.51227759  0.72722507  0.10639540    -0.11400
C567        C  0.50121506  0.83746861  0.12464949     0.01400
C568        C  0.50107251  0.87504322  0.12471107    -0.31400
C569        C  0.50159935  0.66037573  0.12448881     0.02800
C570        C  0.50159248  0.62280318  0.12451031    -0.33100
H571        H  0.48237245  0.71033675  0.15677673     0.13800
H572        H  0.48220568  0.78713693  0.15684642     0.13600
H573        H  0.52052617  0.78751246  0.09233570     0.10300
H574        H  0.52069254  0.71069399  0.09226626     0.12500
C575        C  0.50113316  0.29260644  0.12434899     0.18900
C576        C  0.49783272  0.27099730  0.10549022    -0.10300
C577        C  0.49768214  0.22740696  0.10540804    -0.11100
C578        C  0.50082657  0.20524139  0.12418527     0.20400
C579        C  0.50415764  0.22685052  0.14304159    -0.13100
C580        C  0.50430803  0.27043807  0.14312379    -0.11400
C581        C  0.50061980  0.16038900  0.12411635     0.01400
C582        C  0.50050751  0.12281921  0.12413821    -0.31400
C583        C  0.50123681  0.33746200  0.12443531     0.02800
C584        C  0.50130285  0.37503339  0.12449241    -0.33100
H585        H  0.49536611  0.28782383  0.09088211     0.13800
H586        H  0.49510195  0.21101610  0.09073804     0.13600
H587        H  0.50661531  0.21002514  0.15765060     0.13500
H588        H  0.50687906  0.28682667  0.15779496     0.12500
C589        C  0.00220644  0.49803824  0.27142790     0.18900
C590        C  0.03943217  0.49251062  0.26022644    -0.10300
C591        C  0.03910671  0.49289802  0.23843225    -0.11100
C592        C  0.00155816  0.49881944  0.22775041     0.20400
C593        C  0.96433654  0.50440782  0.23895071    -0.13100
C594        C  0.96466182  0.50401982  0.26074677    -0.11400
C595        C  0.00123941  0.49902335  0.20532757     0.01400
C596        C  0.00117302  0.49904785  0.18654325    -0.31400
C597        C  0.00253201  0.49768061  0.29385128     0.02800
C598        C  0.00263309  0.49765525  0.31263616    -0.33100
H599        H  0.06864077  0.48789789  0.26832947     0.13800
H600        H  0.06806575  0.48855308  0.22992263     0.13600
H601        H  0.93512863  0.50901704  0.23084627     0.13500
H602        H  0.93570287  0.50836042  0.26925741     0.12500
C603        C  0.00026549  0.50056820  0.97776897     0.18900
C604        C  0.97090854  0.52419737  0.98897050    -0.10300
C605        C  0.97145313  0.52410815  0.01076679    -0.11100
C606        C  0.00135730  0.50039031  0.02145006     0.20400
C607        C  0.03076129  0.47682781  0.01024718    -0.13100
C608        C  0.03021663  0.47691687  0.98845276    -0.11400
C609        C  0.00173542  0.50005881  0.04387661     0.01400
C610        C  0.00186820  0.49968471  0.06266293    -0.31400
C611        C  0.99966891  0.50057721  0.95534393     0.02800
C612        C  0.99931667  0.50059576  0.93655836    -0.33100
H613        H  0.94762456  0.54261310  0.98086631     0.13800
H614        H  0.94856785  0.54243791  0.01927546     0.13600
H615        H  0.05401633  0.45837393  0.01835045     0.13500
H616        H  0.05307281  0.45854879  0.97994557     0.12500
C617        C  0.00172550  0.99837990  0.22774715     0.18900
C618        C  0.03572381  0.01490177  0.23846146    -0.10300
C619        C  0.03605410  0.01485517  0.26026428    -0.11100
C620        C  0.00238517  0.99828608  0.27145347     0.20400
C621        C  0.96841634  0.98170761  0.26073768    -0.13100
C622        C  0.96808662  0.98175354  0.23893587    -0.11400
C623        C  0.00261521  0.99839774  0.29389537     0.01400
C624        C  0.00260896  0.99849416  0.31269127    -0.31400
C625        C  0.00133669  0.99854706  0.20530777     0.02800
C626        C  0.00107349  0.99872464  0.18651441    -0.33100
H627        H  0.06190565  0.02783115  0.22997147     0.13800
H628        H  0.06248332  0.02775442  0.26838369     0.13600
H629        H  0.94221508  0.96881468  0.26922666     0.13500
H630        H  0.94163921  0.96888966  0.23081674     0.12500
C631        C  0.00002437  0.99874066  0.02139462     0.18900
C632        C  0.02559502  0.02638817  0.01036420    -0.10300
C633        C  0.02556742  0.02649091  0.98857120    -0.11100
C634        C  0.99996784  0.99895048  0.97771299     0.20400
C635        C  0.97443911  0.97124143  0.98873794    -0.13100
C636        C  0.97446636  0.97113885  0.01053916    -0.11400
C637        C  0.99979241  0.99929765  0.95529016     0.01400
C638        C  0.99968546  0.99984730  0.93650772    -0.31400
C639        C  0.99999677  0.99876643  0.04382099     0.02800
C640        C  0.00007803  0.99891273  0.06260656    -0.33100
H641        H  0.04548019  0.04785563  0.01860199     0.13800
H642        H  0.04542044  0.04804670  0.98019919     0.13600
H643        H  0.95451787  0.94981583  0.98049442     0.13500
H644        H  0.95457618  0.94962457  0.01891581     0.12500
C645        C  0.00149974  0.70537249  0.12467196     0.18900
C646        C  0.02794091  0.72707877  0.13805539    -0.10300
C647        C  0.02776253  0.77067195  0.13806279    -0.11100
C648        C  0.00114218  0.79273995  0.12468779     0.20400
C649        C  0.97469413  0.77103079  0.11131097    -0.13100
C650        C  0.97487254  0.72744218  0.11130353    -0.11400
C651        C  0.00098461  0.83759508  0.12467435     0.01400
C652        C  0.00086237  0.87516633  0.12464478    -0.31400
C653        C  0.00166815  0.66051865  0.12465321     0.02800
C654        C  0.00170832  0.62294908  0.12461696    -0.33100
H655        H  0.04865172  0.71032777  0.14845862     0.13800
H656        H  0.04834185  0.78714310  0.14847021     0.13600
H657        H  0.95398608  0.78777871  0.10090504     0.13500
H658        H  0.95429631  0.71097355  0.10089351     0.12500
C659        C  0.00070873  0.20537069  0.12478199     0.18900
C660        C  0.03168651  0.22699821  0.11383683    -0.10300
C661        C  0.03192271  0.27058497  0.11391915    -0.11100
C662        C  0.00118275  0.29274202  0.12494673     0.20400
C663        C  0.97024785  0.27111570  0.13592707    -0.13100
C664        C  0.97001120  0.22752306  0.13584443    -0.11400
C665        C  0.00129417  0.33760338  0.12491599     0.01400
C666        C  0.00136780  0.37517835  0.12481722    -0.31400
C667        C  0.00043080  0.16051439  0.12465268     0.02800
C668        C  0.00032360  0.12294195  0.12455499    -0.33100
H669        H  0.05558368  0.21018808  0.10523913     0.13800
H670        H  0.05598879  0.28698491  0.10537631     0.13600
H671        H  0.94632864  0.28792970  0.14450761     0.13500
H672        H  0.94592275  0.21111947  0.14436962     0.12500
loop_ 
_geom_bond_atom_site_label_1 
_geom_bond_atom_site_label_2 
_geom_bond_distance 
_geom_bond_site_symmetry_2 
_ccdc_geom_bond_type 
O1            V9   1.900       .  S
O1           C11   1.263       .  A
O2            V9   1.900   1_545  S
O2           C12   1.263       .  A
O3            V9   1.900       .  S
O3           C13   1.263       .  A
O4            V9   1.900       .  S
O4           C14   1.263       .  A
O5           V10   1.900       .  S
O5           C14   1.263   1_655  A
O6           V10   1.900       .  S
O6           C13   1.263   1_655  A
O7           V10   1.900   1_545  S
O7           C12   1.263   1_655  A
O8           V10   1.900       .  S
O8           C11   1.263   1_655  A
V9           V10   2.091   1_455  T
C11         C652   1.434       .  S
C12         C668   1.435       .  S
C13         C626   1.435       .  S
C14         C640   1.434       .  S
O15          V23   1.900       .  S
O15          C25   1.263   1_655  A
O16          V23   1.900       .  S
O16          C26   1.263   1_655  A
O17          V23   1.900       .  S
O17          C27   1.263   1_655  A
O18          V23   1.900       .  S
O18          C28   1.263   1_655  A
O19          V24   1.900       .  S
O19          C28   1.263       .  A
O20          V24   1.900       .  S
O20          C27   1.263       .  A
O21          V24   1.900       .  S
O21          C26   1.263       .  A
O22          V24   1.900       .  S
O22          C25   1.263       .  A
V23          V24   2.091   1_655  T
C25         C610   1.434       .  S
C26         C596   1.434       .  S
C27         C654   1.434       .  S
C28         C666   1.435       .  S
O29          V37   1.900       .  S
O29          C39   1.263       .  A
O30          V37   1.900       .  S
O30          C40   1.263       .  A
O31          V37   1.900   1_545  S
O31          C41   1.263       .  A
O32          V37   1.900       .  S
O32          C42   1.263       .  A
O33          V38   1.900       .  S
O33          C42   1.263       .  A
O34          V38   1.900   1_545  S
O34          C41   1.263       .  A
O35          V38   1.899       .  S
O35          C40   1.262       .  A
O36          V38   1.900       .  S
O36          C39   1.263       .  A
V37          V38   2.091       .  T
C39         C540   1.435       .  S
C40         C554   1.434       .  S
C41         C582   1.435       .  S
C42         C568   1.435       .  S
O43          V51   1.899       .  S
O43          C53   1.262       .  A
O44          V51   1.900       .  S
O44          C54   1.263       .  A
O45          V51   1.900       .  S
O45          C55   1.263       .  A
O46          V51   1.900       .  S
O46          C56   1.263       .  A
O47          V52   1.900       .  S
O47          C56   1.263       .  A
O48          V52   1.900       .  S
O48          C55   1.263       .  A
O49          V52   1.900       .  S
O49          C54   1.263       .  A
O50          V52   1.900       .  S
O50          C53   1.263       .  A
V51          V52   2.091       .  T
C53         C528   1.434       .  S
C54         C514   1.434       .  S
C55         C584   1.435       .  S
C56         C570   1.435       .  S
O57          V65   1.899       .  S
O57          C67   1.262       .  A
O58          V65   1.899       .  S
O58          C68   1.262       .  A
O59          V65   1.901       .  S
O59          C69   1.263       .  A
O60          V65   1.900   1_565  S
O60          C70   1.263       .  A
O61          V66   1.899   1_565  S
O61          C70   1.262   1_455  A
O62          V66   1.900       .  S
O62          C69   1.263   1_455  A
O63          V66   1.900       .  S
O63          C68   1.263   1_455  A
O64          V66   1.899       .  S
O64          C67   1.262   1_455  A
V65          V66   2.091   1_655  T
C67         C472   1.433       .  S
C68         C638   1.434   1_545  S
C69         C498   1.435       .  S
C70         C484   1.434       .  S
O71          V79   1.900       .  S
O71          C81   1.263   1_455  A
O72          V79   1.900       .  S
O72          C82   1.263   1_455  A
O73          V79   1.900       .  S
O73          C83   1.263   1_455  A
O74          V79   1.900       .  S
O74          C84   1.263   1_455  A
O75          V80   1.900       .  S
O75          C84   1.263       .  A
O76          V80   1.900       .  S
O76          C83   1.263       .  A
O77          V80   1.901       .  S
O77          C82   1.263       .  A
O78          V80   1.900       .  S
O78          C81   1.263       .  A
V79          V80   2.091   1_455  T
C81         C486   1.434       .  S
C82         C500   1.435       .  S
C83         C456   1.434       .  S
C84         C612   1.434       .  S
O85          V93   1.901   1_565  S
O85          C95   1.263       .  A
O86          V93   1.901       .  S
O86          C96   1.263       .  A
O87          V93   1.900       .  S
O87          C97   1.263       .  A
O88          V93   1.899       .  S
O88          C98   1.263       .  A
O89          V94   1.899   1_565  S
O89          C98   1.262   1_565  A
O90          V94   1.900       .  S
O90          C97   1.263       .  A
O91          V94   1.899       .  S
O91          C96   1.262       .  A
O92          V94   1.900   1_565  S
O92          C95   1.263       .  A
V93          V94   2.091       .  T
C95         C428   1.435       .  S
C96         C442   1.434       .  S
C97         C416   1.434       .  S
C98         C556   1.434       .  S
O99         V107   1.900       .  S
O99         C109   1.263       .  A
O100        V107   1.900       .  S
O100        C110   1.263       .  A
O101        V107   1.900       .  S
O101        C111   1.263       .  A
O102        V107   1.900       .  S
O102        C112   1.263       .  A
O103        V108   1.899       .  S
O103        C112   1.262       .  A
O104        V108   1.900       .  S
O104        C111   1.263       .  A
O105        V108   1.900       .  S
O105        C110   1.263       .  A
O106        V108   1.901       .  S
O106        C109   1.263       .  A
V107        V108   2.091       .  T
C109        C430   1.435       .  S
C110        C444   1.434       .  S
C111        C400   1.435       .  S
C112        C526   1.434       .  S
O113        V121   1.901       .  S
O113        C123   1.263       .  A
O114        V121   1.900   1_655  S
O114        C124   1.263       .  A
O115        V121   1.900       .  S
O115        C125   1.263       .  A
O116        V121   1.900       .  S
O116        C126   1.263       .  A
O117        V122   1.900       .  S
O117        C126   1.263   1_545  A
O118        V122   1.901       .  S
O118        C125   1.263   1_545  A
O119        V122   1.900   1_655  S
O119        C124   1.263   1_545  A
O120        V122   1.900       .  S
O120        C123   1.263   1_545  A
V121        V122   2.091   1_565  T
C123        C386   1.435       .  S
C124        C374   1.435       .  S
C125        C624   1.435       .  S
C126        C360   1.435       .  S
O127        V135   1.900       .  S
O127        C137   1.263       .  A
O128        V135   1.900       .  S
O128        C138   1.263       .  A
O129        V135   1.900       .  S
O129        C139   1.263       .  A
O130        V135   1.900   1_655  S
O130        C140   1.263       .  A
O131        V136   1.900   1_655  S
O131        C140   1.263       .  A
O132        V136   1.901       .  S
O132        C139   1.263       .  A
O133        V136   1.899       .  S
O133        C138   1.262       .  A
O134        V136   1.900       .  S
O134        C137   1.263       .  A
V135        V136   2.091       .  T
C137        C318   1.434       .  S
C138        C598   1.434       .  S
C139        C346   1.435       .  S
C140        C332   1.435       .  S
O141        V149   1.900       .  S
O141        C151   1.263   1_565  A
O142        V149   1.900       .  S
O142        C152   1.263   1_565  A
O143        V149   1.900       .  S
O143        C153   1.263       .  A
O144        V149   1.900       .  S
O144        C154   1.263   1_565  A
O145        V150   1.900       .  S
O145        C154   1.263       .  A
O146        V150   1.900       .  S
O146        C153   1.263   1_545  A
O147        V150   1.901       .  S
O147        C152   1.263       .  A
O148        V150   1.900       .  S
O148        C151   1.263       .  A
V149        V150   2.091   1_565  T
C151        C388   1.435       .  S
C152        C372   1.435       .  S
C153        C304   1.434       .  S
C154        C542   1.435       .  S
O155        V163   1.900       .  S
O155        C165   1.263       .  A
O156        V163   1.900       .  S
O156        C166   1.263       .  A
O157        V163   1.900       .  S
O157        C167   1.263       .  A
O158        V163   1.900       .  S
O158        C168   1.263       .  A
O159        V164   1.899       .  S
O159        C168   1.262       .  A
O160        V164   1.899       .  S
O160        C167   1.262       .  A
O161        V164   1.900       .  S
O161        C166   1.263       .  A
O162        V164   1.900       .  S
O162        C165   1.263       .  A
V163        V164   2.091       .  T
C165        C344   1.435       .  S
C166        C330   1.435       .  S
C167        C288   1.434       .  S
C168        C512   1.434       .  S
O169        V177   1.899       .  S
O169        C179   1.262       .  A
O170        V177   1.899       .  S
O170        C180   1.262       .  A
O171        V177   1.901   1_455  S
O171        C181   1.263   1_565  A
O172        V177   1.901       .  S
O172        C182   1.263       .  A
O173        V178   1.900       .  S
O173        C182   1.262   1_545  A
O174        V178   1.900   1_455  S
O174        C181   1.263       .  A
O175        V178   1.900       .  S
O175        C180   1.263   1_545  A
O176        V178   1.900       .  S
O176        C179   1.263   1_545  A
V177        V178   2.091   1_565  T
C179        C470   1.433       .  S
C180        C358   1.435       .  S
C181        C274   1.435       .  S
C182        C262   1.434       .  S
O183        V191   1.900   1_455  S
O183        C193   1.263       .  A
O184        V191   1.900       .  S
O184        C194   1.263       .  A
O185        V191   1.900       .  S
O185        C195   1.262       .  A
O186        V191   1.899       .  S
O186        C196   1.262       .  A
O187        V192   1.901       .  S
O187        C196   1.263       .  A
O188        V192   1.900       .  S
O188        C195   1.263       .  A
O189        V192   1.900       .  S
O189        C194   1.263       .  A
O190        V192   1.900   1_455  S
O190        C193   1.263       .  A
V191        V192   2.091       .  T
C193        C248   1.435       .  S
C194        C234   1.434       .  S
C195        C458   1.434       .  S
C196        C316   1.435       .  S
O197        V205   1.900       .  S
O197        C207   1.263   1_565  A
O198        V205   1.900       .  S
O198        C208   1.263   1_565  A
O199        V205   1.900       .  S
O199        C209   1.263   1_565  A
O200        V205   1.900       .  S
O200        C210   1.263   1_565  A
O201        V206   1.900       .  S
O201        C210   1.263       .  A
O202        V206   1.900       .  S
O202        C209   1.262       .  A
O203        V206   1.900       .  S
O203        C208   1.263       .  A
O204        V206   1.900       .  S
O204        C207   1.263       .  A
V205        V206   2.091   1_565  T
C207        C276   1.435       .  S
C208        C260   1.434       .  S
C209        C414   1.434       .  S
C210        C302   1.434   1_545  S
O211        V219   1.900       .  S
O211        C221   1.263       .  A
O212        V219   1.901       .  S
O212        C222   1.263       .  A
O213        V219   1.900       .  S
O213        C223   1.263       .  A
O214        V219   1.900       .  S
O214        C224   1.263       .  A
O215        V220   1.901       .  S
O215        C224   1.263       .  A
O216        V220   1.900       .  S
O216        C223   1.263       .  A
O217        V220   1.900       .  S
O217        C222   1.263       .  A
O218        V220   1.900       .  S
O218        C221   1.263       .  A
V219        V220   2.091       .  T
C221        C290   1.434       .  S
C222        C402   1.435       .  S
C223        C232   1.434       .  S
C224        C246   1.435       .  S
C225        C233   1.439       .  S
C225        C226   1.401       .  A
C225        C230   1.401       .  A
C226        C227   1.399       .  A
C226        H235   1.083       .  S
C227        C228   1.401       .  A
C227        H236   1.083       .  S
C228        C231   1.439       .  S
C228        C229   1.401       .  A
C229        C230   1.399       .  A
C229        H237   1.083       .  S
C230        H238   1.083       .  S
C231        C232   1.206       .  T
C233        C234   1.206       .  T
C239        C247   1.440       .  S
C239        C240   1.401       .  A
C239        C244   1.401       .  A
C240        C241   1.399       .  A
C240        H249   1.083       .  S
C241        C242   1.401       .  A
C241        H250   1.083       .  S
C242        C245   1.440       .  S
C242        C243   1.401       .  A
C243        C244   1.399       .  A
C243        H251   1.083       .  S
C244        H252   1.083       .  S
C245        C246   1.206       .  T
C247        C248   1.206       .  T
C253        C261   1.439       .  S
C253        C254   1.401       .  A
C253        C258   1.401   1_565  A
C254        C255   1.399       .  A
C254        H263   1.083       .  S
C255        C256   1.401   1_565  A
C255        H264   1.083       .  S
C256        C259   1.439       .  S
C256        C257   1.401       .  A
C257        C258   1.399       .  A
C257        H265   1.083       .  S
C258        H266   1.083       .  S
C259        C260   1.206       .  T
C261        C262   1.206       .  T
C267        C275   1.440       .  S
C267        C268   1.401   1_545  A
C267        C272   1.401       .  A
C268        C269   1.399       .  A
C268        H277   1.083       .  S
C269        C270   1.401   1_565  A
C269        H278   1.083       .  S
C270        C273   1.440       .  S
C270        C271   1.401       .  A
C271        C272   1.399       .  A
C271        H279   1.083       .  S
C272        H280   1.083       .  S
C273        C274   1.206       .  T
C275        C276   1.206       .  T
C281        C289   1.439       .  S
C281        C282   1.401       .  A
C281        C286   1.401       .  A
C282        C283   1.399       .  A
C282        H291   1.083       .  S
C283        C284   1.401       .  A
C283        H292   1.083       .  S
C284        C287   1.439       .  S
C284        C285   1.401       .  A
C285        C286   1.399       .  A
C285        H293   1.083       .  S
C286        H294   1.083       .  S
C287        C288   1.206       .  T
C289        C290   1.206       .  T
C295        C303   1.439       .  S
C295        C296   1.401       .  A
C295        C300   1.401   1_565  A
C296        C297   1.399       .  A
C296        H305   1.083       .  S
C297        C298   1.401       .  A
C297        H306   1.083       .  S
C298        C301   1.439       .  S
C298        C299   1.401   1_565  A
C299        C300   1.399       .  A
C299        H307   1.083       .  S
C300        H308   1.083       .  S
C301        C302   1.206       .  T
C303        C304   1.206       .  T
C309        C317   1.439       .  S
C309        C310   1.401       .  A
C309        C314   1.401   1_655  A
C310        C311   1.399       .  A
C310        H319   1.083       .  S
C311        C312   1.401       .  A
C311        H320   1.083       .  S
C312        C315   1.439       .  S
C312        C313   1.401   1_655  A
C313        C314   1.398       .  A
C313        H321   1.083       .  S
C314        H322   1.083       .  S
C315        C316   1.206       .  T
C317        C318   1.206   1_655  T
C323        C331   1.440       .  S
C323        C324   1.401       .  A
C323        C328   1.401       .  A
C324        C325   1.399       .  A
C324        H333   1.083       .  S
C325        C326   1.401       .  A
C325        H334   1.083       .  S
C326        C329   1.440       .  S
C326        C327   1.401       .  A
C327        C328   1.399       .  A
C327        H335   1.083       .  S
C328        H336   1.083       .  S
C329        C330   1.206       .  T
C331        C332   1.206       .  T
C337        C345   1.440       .  S
C337        C338   1.401       .  A
C337        C342   1.401       .  A
C338        C339   1.399       .  A
C338        H347   1.083       .  S
C339        C340   1.401       .  A
C339        H348   1.083       .  S
C340        C343   1.440       .  S
C340        C341   1.401       .  A
C341        C342   1.399       .  A
C341        H349   1.083       .  S
C342        H350   1.083       .  S
C343        C344   1.206       .  T
C345        C346   1.206       .  T
C351        C359   1.440       .  S
C351        C352   1.401   1_665  A
C351        C356   1.401       .  A
C352        C353   1.399       .  A
C352        H361   1.083       .  S
C353        C354   1.401   1_445  A
C353        H362   1.083       .  S
C354        C357   1.440       .  S
C354        C355   1.401       .  A
C355        C356   1.399       .  A
C355        H363   1.083       .  S
C356        H364   1.083       .  S
C357        C358   1.206       .  T
C359        C360   1.206   1_655  T
C365        C373   1.440       .  S
C365        C366   1.401       .  A
C365        C370   1.401   1_565  A
C366        C367   1.399       .  A
C366        H375   1.083       .  S
C367        C368   1.401       .  A
C367        H376   1.083       .  S
C368        C371   1.440       .  S
C368        C369   1.401   1_565  A
C369        C370   1.399       .  A
C369        H377   1.083       .  S
C370        H378   1.083       .  S
C371        C372   1.206   1_565  T
C373        C374   1.206       .  T
C379        C387   1.440       .  S
C379        C380   1.401       .  A
C379        C384   1.401   1_545  A
C380        C381   1.399       .  A
C380        H389   1.083       .  S
C381        C382   1.401   1_545  A
C381        H390   1.083       .  S
C382        C385   1.440       .  S
C382        C383   1.401       .  A
C383        C384   1.399       .  A
C383        H391   1.083       .  S
C384        H392   1.083       .  S
C385        C386   1.206       .  T
C387        C388   1.206       .  T
C393        C401   1.440       .  S
C393        C394   1.401       .  A
C393        C398   1.401       .  A
C394        C395   1.399       .  A
C394        H403   1.083       .  S
C395        C396   1.401       .  A
C395        H404   1.083       .  S
C396        C399   1.440       .  S
C396        C397   1.401       .  A
C397        C398   1.399       .  A
C397        H405   1.083       .  S
C398        H406   1.083       .  S
C399        C400   1.206       .  T
C401        C402   1.206       .  T
C407        C415   1.439       .  S
C407        C408   1.401       .  A
C407        C412   1.401   1_545  A
C408        C409   1.399       .  A
C408        H417   1.083       .  S
C409        C410   1.401       .  A
C409        H418   1.083       .  S
C410        C413   1.439       .  S
C410        C411   1.401   1_545  A
C411        C412   1.399       .  A
C411        H419   1.083       .  S
C412        H420   1.083       .  S
C413        C414   1.205       .  T
C415        C416   1.206       .  T
C421        C429   1.440       .  S
C421        C422   1.402       .  A
C421        C426   1.401       .  A
C422        C423   1.399       .  A
C422        H431   1.083       .  S
C423        C424   1.402       .  A
C423        H432   1.083       .  S
C424        C427   1.440       .  S
C424        C425   1.401       .  A
C425        C426   1.399       .  A
C425        H433   1.083       .  S
C426        H434   1.083       .  S
C427        C428   1.206       .  T
C429        C430   1.206       .  T
C435        C443   1.439       .  S
C435        C436   1.401       .  A
C435        C440   1.401       .  A
C436        C437   1.399       .  A
C436        H445   1.083       .  S
C437        C438   1.401       .  A
C437        H446   1.083       .  S
C438        C441   1.439       .  S
C438        C439   1.401       .  A
C439        C440   1.398       .  A
C439        H447   1.083       .  S
C440        H448   1.083       .  S
C441        C442   1.206       .  T
C443        C444   1.206       .  T
C449        C457   1.439       .  S
C449        C450   1.401   1_655  A
C449        C454   1.401       .  A
C450        C451   1.399       .  A
C450        H459   1.083       .  S
C451        C452   1.401   1_455  A
C451        H460   1.083       .  S
C452        C455   1.439       .  S
C452        C453   1.401       .  A
C453        C454   1.399       .  A
C453        H461   1.083       .  S
C454        H462   1.083       .  S
C455        C456   1.206       .  T
C457        C458   1.206       .  T
C463        C471   1.438   1_565  S
C463        C464   1.401   1_665  A
C463        C468   1.401       .  A
C464        C465   1.398       .  A
C464        H473   1.084       .  S
C465        C466   1.401   1_445  A
C465        H474   1.084       .  S
C466        C469   1.438       .  S
C466        C467   1.401       .  A
C467        C468   1.398       .  A
C467        H475   1.083       .  S
C468        H476   1.083       .  S
C469        C470   1.205       .  T
C471        C472   1.205       .  T
C477        C485   1.439       .  S
C477        C478   1.401       .  A
C477        C482   1.401   1_655  A
C478        C479   1.399       .  A
C478        H487   1.083       .  S
C479        C480   1.401       .  A
C479        H488   1.083       .  S
C480        C483   1.439       .  S
C480        C481   1.401   1_655  A
C481        C482   1.399       .  A
C481        H489   1.083       .  S
C482        H490   1.083       .  S
C483        C484   1.205       .  T
C485        C486   1.206       .  T
C491        C499   1.440       .  S
C491        C492   1.401       .  A
C491        C496   1.401   1_655  A
C492        C493   1.399       .  A
C492        H501   1.083       .  S
C493        C494   1.401       .  A
C493        H502   1.083       .  S
C494        C497   1.440       .  S
C494        C495   1.401   1_655  A
C495        C496   1.399       .  A
C495        H503   1.083       .  S
C496        H504   1.083       .  S
C497        C498   1.206       .  T
C499        C500   1.206       .  T
C505        C513   1.439       .  S
C505        C506   1.401       .  A
C505        C510   1.401       .  A
C506        C507   1.399       .  A
C506        H515   1.083       .  S
C507        C508   1.401       .  A
C507        H516   1.083       .  S
C508        C511   1.439       .  S
C508        C509   1.401       .  A
C509        C510   1.399       .  A
C509        H517   1.083       .  S
C510        H518   1.083       .  S
C511        C512   1.205       .  T
C513        C514   1.205       .  T
C519        C527   1.439       .  S
C519        C520   1.401       .  A
C519        C524   1.401       .  A
C520        C521   1.399   1_554  A
C520        H529   1.083       .  S
C521        C522   1.401       .  A
C521        H530   1.083       .  S
C522        C525   1.439       .  S
C522        C523   1.401       .  A
C523        C524   1.398   1_556  A
C523        H531   1.083       .  S
C524        H532   1.083       .  S
C525        C526   1.205       .  T
C527        C528   1.205       .  T
C533        C541   1.440       .  S
C533        C534   1.401       .  A
C533        C538   1.401   1_545  A
C534        C535   1.399       .  A
C534        H543   1.083       .  S
C535        C536   1.402       .  A
C535        H544   1.083       .  S
C536        C539   1.440       .  S
C536        C537   1.401   1_545  A
C537        C538   1.399       .  A
C537        H545   1.083       .  S
C538        H546   1.083       .  S
C539        C540   1.206   1_545  T
C541        C542   1.206       .  T
C547        C555   1.438       .  S
C547        C548   1.401       .  A
C547        C552   1.401   1_565  A
C548        C549   1.398   1_556  A
C548        H557   1.083       .  S
C549        C550   1.401       .  A
C549        H558   1.083       .  S
C550        C553   1.439       .  S
C550        C551   1.401   1_565  A
C551        C552   1.399   1_554  A
C551        H559   1.083       .  S
C552        H560   1.083       .  S
C553        C554   1.205       .  T
C555        C556   1.205   1_565  T
C561        C569   1.440       .  S
C561        C562   1.401       .  A
C561        C566   1.401       .  A
C562        C563   1.399       .  A
C562        H571   1.083       .  S
C563        C564   1.401       .  A
C563        H572   1.083       .  S
C564        C567   1.440       .  S
C564        C565   1.401       .  A
C565        C566   1.399       .  A
C565        H573   1.083       .  S
C566        H574   1.083       .  S
C567        C568   1.206       .  T
C569        C570   1.206       .  T
C575        C583   1.439       .  S
C575        C576   1.401       .  A
C575        C580   1.401       .  A
C576        C577   1.399       .  A
C576        H585   1.083       .  S
C577        C578   1.401       .  A
C577        H586   1.083       .  S
C578        C581   1.439       .  S
C578        C579   1.401       .  A
C579        C580   1.399       .  A
C579        H587   1.083       .  S
C580        H588   1.083       .  S
C581        C582   1.206       .  T
C583        C584   1.206       .  T
C589        C597   1.439       .  S
C589        C590   1.401       .  A
C589        C594   1.401   1_455  A
C590        C591   1.399       .  A
C590        H599   1.083       .  S
C591        C592   1.401       .  A
C591        H600   1.083       .  S
C592        C595   1.439       .  S
C592        C593   1.401   1_455  A
C593        C594   1.399       .  A
C593        H601   1.083       .  S
C594        H602   1.084       .  S
C595        C596   1.205       .  T
C597        C598   1.205       .  T
C603        C611   1.439   1_455  S
C603        C604   1.401   1_455  A
C603        C608   1.401       .  A
C604        C605   1.399   1_556  A
C604        H613   1.083       .  S
C605        C606   1.401   1_655  A
C605        H614   1.083       .  S
C606        C609   1.439       .  S
C606        C607   1.401       .  A
C607        C608   1.399   1_554  A
C607        H615   1.083       .  S
C608        H616   1.083       .  S
C609        C610   1.206       .  T
C611        C612   1.206       .  T
C617        C625   1.440       .  S
C617        C618   1.401   1_565  A
C617        C622   1.401   1_455  A
C618        C619   1.399       .  A
C618        H627   1.083       .  S
C619        C620   1.401   1_545  A
C619        H628   1.083       .  S
C620        C623   1.440       .  S
C620        C621   1.401   1_455  A
C621        C622   1.399       .  A
C621        H629   1.083       .  S
C622        H630   1.083       .  S
C623        C624   1.206       .  T
C625        C626   1.206       .  T
C631        C639   1.439   1_455  S
C631        C632   1.401   1_565  A
C631        C636   1.401   1_455  A
C632        C633   1.398   1_554  A
C632        H641   1.083       .  S
C633        C634   1.401   1_445  A
C633        H642   1.083       .  S
C634        C637   1.439       .  S
C634        C635   1.401       .  A
C635        C636   1.399   1_556  A
C635        H643   1.083       .  S
C636        H644   1.083       .  S
C637        C638   1.205       .  T
C639        C640   1.205   1_655  T
C645        C653   1.439       .  S
C645        C646   1.401       .  A
C645        C650   1.401   1_455  A
C646        C647   1.399       .  A
C646        H655   1.083       .  S
C647        C648   1.401       .  A
C647        H656   1.083       .  S
C648        C651   1.439       .  S
C648        C649   1.401   1_455  A
C649        C650   1.399       .  A
C649        H657   1.083       .  S
C650        H658   1.083       .  S
C651        C652   1.206       .  T
C653        C654   1.206       .  T
C659        C667   1.440       .  S
C659        C660   1.401       .  A
C659        C664   1.401   1_455  A
C660        C661   1.399       .  A
C660        H669   1.083       .  S
C661        C662   1.401       .  A
C661        H670   1.083       .  S
C662        C665   1.440       .  S
C662        C663   1.401   1_455  A
C663        C664   1.399       .  A
C663        H671   1.083       .  S
C664        H672   1.083       .  S
C665        C666   1.206       .  T
C667        C668   1.206       .  T
