geometry optimzed in LAMMPS
_audit_creation_date              2020-11-30 
_audit_creation_method            'lammps2cif' 
_symmetry_space_group_name_H-M    'P1' 
_symmetry_Int_Tables_number       1 
_symmetry_cell_setting            triclinic 
loop_ 
_symmetry_equiv_pos_as_xyz 
  x,y,z 
_cell_length_a                    25.35320732718457 
_cell_length_b                    25.42208699255224 
_cell_length_c                    26.70384957236748 
_cell_angle_alpha                 89.16808106511519 
_cell_angle_beta                  90.65765886787685 
_cell_angle_gamma                 122.0712238184277 
loop_ 
_atom_site_label 
_atom_site_type_symbol 
_atom_site_fract_x 
_atom_site_fract_y 
_atom_site_fract_z 
_atom_site_charge 
C1          C  0.18943744  0.31854100  0.32001415     0.01620
C2          C  0.36971600  0.14051547  0.14138739     0.01620
C3          C  0.18887133  0.30875223  0.16866775     0.01620
C4          C  0.36151885  0.14157589  0.29273815     0.01620
O5          O  0.36702532  0.46683023  0.42598982    -0.76020
O6          O  0.01893830  0.31789187  0.03460621    -0.77580
O7          O  0.39856797  0.30005750  0.40697471    -0.74600
O8          O  0.34896744  0.34664940  0.05388173    -0.72980
O9          O  0.41142897  0.40816846  0.11792740    -0.74770
O10         O  0.96051558  0.36348472  0.34312065    -0.75700
O11         O  0.41601479  0.28229242  0.52138407    -0.77030
O12         O  0.33213707  0.36437328  0.43957519    -0.77320
Eu13       Eu  0.41751297  0.36710242  0.48055307     2.39200
O14         O  0.99921942  0.39655355  0.03711058    -0.84830
O15         O  0.44678519  0.44891177  0.42400125    -0.88430
C16         C  0.32869221  0.40794925  0.41868491     1.06260
C17         C  0.45997464  0.27913960  0.04198782     1.06080
C18         C  0.42123108  0.30918718  0.36222172     1.06020
C19         C  0.35733728  0.36880585  0.09866315     1.03880
H20         H  0.00632179  0.35633464  0.42497187     0.33630
O21         O  0.00927638  0.39256971  0.43866558    -0.97220
H22         H  0.40447544  0.45423411  0.53619937     0.33660
O23         O  0.44116638  0.45769753  0.52263106    -0.99760
O24         O  0.20048188  0.49508391  0.02702385    -0.76980
O25         O  0.04299406  0.14929865  0.43489983    -0.76520
O26         O  0.08471166  0.42514463  0.34726192    -0.74960
O27         O  0.07308214  0.42556091  0.12929954    -0.78300
O28         O  0.47264546  0.03209283  0.11415306    -0.76160
O29         O  0.97764380  0.52513308  0.33201235    -0.74800
O30         O  0.20285084  0.09797921  0.40795020    -0.76330
O31         O  0.14608998  0.15159694  0.05411548    -0.78250
O32         O  0.13915964  0.03914737  0.34333999    -0.74990
O33         O  0.08687737  0.08695611  0.11851533    -0.77660
O34         O  0.12034231  0.39734005  0.41648766    -0.73400
O35         O  0.44496908  0.06737335  0.39038039    -0.73430
O36         O  0.44492966  0.06781465  0.54492565    -0.73080
O37         O  0.11786982  0.39545134  0.07105536    -0.76610
O38         O  0.22937060  0.09645551  0.01680845    -0.76000
O39         O  0.14497593  0.17928373  0.44524475    -0.74320
Eu40       Eu  0.09091527  0.42321442  0.99582901     2.39770
Eu41       Eu  0.47177705  0.03942295  0.46555326     2.39570
Eu42       Eu  0.03123765  0.47105915  0.37688639     2.38400
Eu43       Eu  0.01952050  0.47968113  0.08449609     2.39880
Eu44       Eu  0.13880298  0.08916642  0.48090500     2.39790
O45         O  0.04860909  0.06077601  0.52441702    -0.88740
O46         O  0.11219390  0.50017217  0.43706765    -0.87630
C47         C  0.23709395  0.05411158  0.03481210     1.06430
C48         C  0.10220688  0.18646782  0.42723850     1.05150
C49         C  0.11323812  0.40224026  0.36886461     1.04540
C50         C  0.10491539  0.40007282  0.11601011     1.06550
C51         C  0.44971827  0.06058251  0.09254942     1.05470
C52         C  0.95131363  0.05609900  0.34536037     1.04320
C53         C  0.19354027  0.07598653  0.36313118     1.04380
C54         C  0.12360852  0.14153092  0.09890372     1.06990
H55         H  0.07250440  0.08807252  0.39204110     0.34360
O56         O  0.05993327  0.05998070  0.42033701    -1.00900
H57         H  0.13752583  0.02244002  0.06978743     0.36410
O58         O  0.10969984  0.01001528  0.04138289    -1.03460
C59         C  0.39664370  0.10883338  0.30151767    -0.09170
C60         C  0.42420068  0.08180556  0.31145908    -0.10720
C61         C  0.29810224  0.10750164  0.31471709    -0.09170
C62         C  0.24858761  0.09125678  0.33458847    -0.10720
C63         C  0.40628297  0.25406801  0.33390770    -0.09170
C64         C  0.39249625  0.20499524  0.31457409    -0.10720
C65         C  0.15451151  0.24535694  0.14726367    -0.09170
C66         C  0.13830817  0.19598522  0.12760907    -0.10720
C67         C  0.15613570  0.34386574  0.15980171    -0.09170
C68         C  0.12949624  0.37180372  0.14984774    -0.10720
C69         C  0.25235965  0.33942759  0.14633609    -0.09170
C70         C  0.30161183  0.35327943  0.12682410    -0.10720
C71         C  0.42693028  0.08586701  0.12490027    -0.09170
C72         C  0.40253286  0.10961693  0.14270912    -0.10720
C73         C  0.31554406  0.10201429  0.10950352    -0.09170
C74         C  0.28149683  0.07470706  0.07467940    -0.10720
C75         C  0.44022656  0.23544673  0.08209094    -0.09170
C76         C  0.41066852  0.19835624  0.11460262    -0.10720
C77         C  0.35646858  0.14765958  0.19322787    -0.09170
C78         C  0.35555878  0.14699978  0.23846742    -0.10720
C79         C  0.12261512  0.23098719  0.38735903    -0.09170
C80         C  0.15002914  0.26492903  0.35235077    -0.10720
C81         C  0.13801268  0.37888449  0.33653355    -0.09170
C82         C  0.16016560  0.35293110  0.31873535    -0.10720
C83         C  0.24786176  0.35843218  0.34628005    -0.09170
C84         C  0.28514947  0.38791086  0.37854316    -0.10720
C85         C  0.19459694  0.30320004  0.22296027    -0.09170
C86         C  0.19571340  0.30459266  0.26818818    -0.10720
C87         C  0.18943744  0.31854098  0.82001415     0.01620
C88         C  0.36971599  0.14051547  0.64138739     0.01620
C89         C  0.18887133  0.30875223  0.66866776     0.01620
C90         C  0.36151884  0.14157588  0.79273816     0.01620
O91         O  0.36702532  0.46683022  0.92598981    -0.76020
O92         O  0.01893830  0.31789188  0.53460624    -0.77580
O93         O  0.39856797  0.30005749  0.90697470    -0.74600
O94         O  0.34896744  0.34664941  0.55388174    -0.72980
O95         O  0.41142897  0.40816847  0.61792740    -0.74770
O96         O  0.96051558  0.36348471  0.84312063    -0.75700
O97         O  0.41601480  0.28229241  0.02138407    -0.77030
O98         O  0.33213707  0.36437327  0.93957519    -0.77320
Eu99       Eu  0.41751297  0.36710241  0.98055307     2.39200
O100        O  0.99921941  0.39655356  0.53711060    -0.84830
O101        O  0.44678519  0.44891177  0.92400124    -0.88430
C102        C  0.32869221  0.40794924  0.91868490     1.06260
C103        C  0.45997464  0.27913961  0.54198783     1.06080
C104        C  0.42123108  0.30918718  0.86222171     1.06020
C105        C  0.35733728  0.36880586  0.59866316     1.03880
H106        H  0.00632179  0.35633463  0.92497185     0.33630
O107        O  0.00927638  0.39256970  0.93866555    -0.97220
H108        H  0.40447544  0.45423410  0.03619936     0.33660
O109        O  0.44116638  0.45769752  0.02263106    -0.99760
O110        O  0.20048187  0.49508392  0.52702387    -0.76980
O111        O  0.04299406  0.14929865  0.93489986    -0.76520
O112        O  0.08471166  0.42514462  0.84726189    -0.74960
O113        O  0.07308214  0.42556092  0.62929957    -0.78300
O114        O  0.47264545  0.03209284  0.61415303    -0.76160
O115        O  0.97764381  0.52513308  0.83201233    -0.74800
O116        O  0.20285084  0.09797921  0.90795021    -0.76330
O117        O  0.14608998  0.15159695  0.55411547    -0.78250
O118        O  0.13915964  0.03914737  0.84334000    -0.74990
O119        O  0.08687736  0.08695612  0.61851531    -0.77660
O120        O  0.12034231  0.39734003  0.91648764    -0.73400
O121        O  0.44496909  0.06737335  0.89038042    -0.73430
O122        O  0.44492968  0.06781464  0.04492569    -0.73080
O123        O  0.11786982  0.39545135  0.57105538    -0.76610
O124        O  0.22937060  0.09645552  0.51680844    -0.76000
O125        O  0.14497593  0.17928373  0.94524477    -0.74320
Eu126      Eu  0.09091527  0.42321442  0.49582903     2.39770
Eu127      Eu  0.47177705  0.03942295  0.96555328     2.39570
Eu128      Eu  0.03123765  0.47105915  0.87688637     2.38400
Eu129      Eu  0.01952049  0.47968114  0.58449611     2.39880
Eu130      Eu  0.13880299  0.08916642  0.98090502     2.39790
O131        O  0.04860909  0.06077600  0.02441704    -0.88740
O132        O  0.11219390  0.50017217  0.93706762    -0.87630
C133        C  0.23709395  0.05411160  0.53481209     1.06430
C134        C  0.10220689  0.18646782  0.92723852     1.05150
C135        C  0.11323812  0.40224024  0.86886459     1.04540
C136        C  0.10491539  0.40007283  0.61601013     1.06550
C137        C  0.44971826  0.06058251  0.59254939     1.05470
C138        C  0.95131362  0.05609900  0.84536039     1.04320
C139        C  0.19354027  0.07598652  0.86313120     1.04380
C140        C  0.12360852  0.14153093  0.59890370     1.06990
H141        H  0.07250440  0.08807251  0.89204112     0.34360
O142        O  0.05993327  0.05998070  0.92033703    -1.00900
H143        H  0.13752582  0.02244003  0.56978741     0.36410
O144        O  0.10969983  0.01001529  0.54138287    -1.03460
C145        C  0.39664369  0.10883337  0.80151769    -0.09170
C146        C  0.42420067  0.08180555  0.81145910    -0.10720
C147        C  0.29810223  0.10750163  0.81471710    -0.09170
C148        C  0.24858761  0.09125678  0.83458848    -0.10720
C149        C  0.40628296  0.25406801  0.83390770    -0.09170
C150        C  0.39249624  0.20499523  0.81457409    -0.10720
C151        C  0.15451151  0.24535694  0.64726366    -0.09170
C152        C  0.13830817  0.19598523  0.62760906    -0.10720
C153        C  0.15613570  0.34386575  0.65980173    -0.09170
C154        C  0.12949624  0.37180372  0.64984776    -0.10720
C155        C  0.25235964  0.33942759  0.64633610    -0.09170
C156        C  0.30161183  0.35327944  0.62682411    -0.10720
C157        C  0.42693026  0.08586701  0.62490023    -0.09170
C158        C  0.40253284  0.10961693  0.64270910    -0.10720
C159        C  0.31554405  0.10201430  0.60950351    -0.09170
C160        C  0.28149682  0.07470708  0.57467940    -0.10720
C161        C  0.44022655  0.23544674  0.58209096    -0.09170
C162        C  0.41066851  0.19835625  0.61460263    -0.10720
C163        C  0.35646857  0.14765956  0.69322787    -0.09170
C164        C  0.35555878  0.14699976  0.73846743    -0.10720
C165        C  0.12261512  0.23098718  0.88735904    -0.09170
C166        C  0.15002914  0.26492901  0.85235077    -0.10720
C167        C  0.13801267  0.37888447  0.83653352    -0.09170
C168        C  0.16016559  0.35293107  0.81873535    -0.10720
C169        C  0.24786176  0.35843216  0.84628005    -0.09170
C170        C  0.28514947  0.38791084  0.87854315    -0.10720
C171        C  0.19459693  0.30320002  0.72296027    -0.09170
C172        C  0.19571340  0.30459263  0.76818818    -0.10720
C173        C  0.18948085  0.81855361  0.32003014     0.01620
C174        C  0.36966352  0.64052841  0.14138747     0.01620
C175        C  0.18894031  0.80875854  0.16868922     0.01620
C176        C  0.36147617  0.64157809  0.29273502     0.01620
O177        O  0.36708119  0.96681860  0.42601307    -0.76020
O178        O  0.01899156  0.81787316  0.03461088    -0.77580
O179        O  0.39860156  0.80006280  0.40698959    -0.74600
O180        O  0.34903511  0.84664699  0.05390450    -0.72980
O181        O  0.41150074  0.90816623  0.11794778    -0.74770
O182        O  0.96054546  0.86348616  0.34313266    -0.75700
O183        O  0.41607118  0.78228590  0.52138721    -0.77030
O184        O  0.33217877  0.86436234  0.43961911    -0.77320
Eu185      Eu  0.41757216  0.86710462  0.48057176     2.39200
O186        O  0.99927919  0.89654604  0.03712490    -0.84830
O187        O  0.44683433  0.94890873  0.42401620    -0.88430
C188        C  0.32873737  0.90793574  0.41872076     1.06260
C189        C  0.46002662  0.77912753  0.04199293     1.06080
C190        C  0.42125469  0.80919095  0.36223368     1.06020
C191        C  0.35740780  0.86880185  0.09868619     1.03880
H192        H  0.00636557  0.85632337  0.42497160     0.33630
O193        O  0.00932470  0.89255848  0.43867081    -0.97220
H194        H  0.40454077  0.95424171  0.53622849     0.33660
O195        O  0.44122697  0.95769936  0.52265448    -0.99760
O196        O  0.20053886  0.99503936  0.02701660    -0.76980
O197        O  0.04292516  0.64930415  0.43488204    -0.76520
O198        O  0.08476925  0.92516663  0.34725569    -0.74960
O199        O  0.07316557  0.92557422  0.12931158    -0.78300
O200        O  0.47252349  0.53204494  0.11413364    -0.76160
O201        O  0.97769616  0.02514247  0.33203212    -0.74800
O202        O  0.20279487  0.59799423  0.40794435    -0.76330
O203        O  0.14604974  0.65159723  0.05411625    -0.78250
O204        O  0.13911542  0.53915413  0.34333253    -0.74990
O205        O  0.08682143  0.58695378  0.11850956    -0.77660
O206        O  0.12039994  0.89735274  0.41647623    -0.73400
O207        O  0.44490693  0.56736032  0.39035627    -0.73430
O208        O  0.44481598  0.56777592  0.54490693    -0.73080
O209        O  0.11792722  0.89544084  0.07106275    -0.76610
O210        O  0.22931229  0.59649584  0.01678655    -0.76000
O211        O  0.14490528  0.67929325  0.44524369    -0.74320
Eu212      Eu  0.09096581  0.92319575  0.99583232     2.39770
Eu213      Eu  0.47171350  0.53942497  0.46553621     2.39570
Eu214      Eu  0.03128326  0.97105611  0.37689830     2.38400
Eu215      Eu  0.01958989  0.97967838  0.08451028     2.39880
Eu216      Eu  0.13873270  0.58917476  0.48089301     2.39790
O217        O  0.04854121  0.56079252  0.52441070    -0.88740
O218        O  0.11223963  0.00015900  0.43707754    -0.87630
C219        C  0.23703504  0.55415986  0.03480681     1.06430
C220        C  0.10213983  0.68647629  0.42722931     1.05150
C221        C  0.11330435  0.90226919  0.36885364     1.04540
C222        C  0.10499089  0.90007928  0.11601960     1.06550
C223        C  0.44958408  0.56052304  0.09253068     1.05470
C224        C  0.95125613  0.55608562  0.34533771     1.04320
C225        C  0.19349281  0.57599939  0.36312632     1.04380
C226        C  0.12357313  0.64152907  0.09890588     1.06990
H227        H  0.07244287  0.58808074  0.39202653     0.34360
O228        O  0.05987107  0.55998592  0.42032048    -1.00900
H229        H  0.13745750  0.52245984  0.06978161     0.36410
O230        O  0.10963455  0.51002970  0.04137466    -1.03460
C231        C  0.39658810  0.60882079  0.30150111    -0.09170
C232        C  0.42414287  0.58178938  0.31143528    -0.10720
C233        C  0.29805979  0.60751392  0.31471694    -0.09170
C234        C  0.24854544  0.59127276  0.33458830    -0.10720
C235        C  0.40628321  0.75406999  0.33391462    -0.09170
C236        C  0.39247344  0.70499336  0.31457742    -0.10720
C237        C  0.15455722  0.74536421  0.14728461    -0.09170
C238        C  0.13831365  0.69598605  0.12762440    -0.10720
C239        C  0.15622229  0.84388760  0.15982017    -0.09170
C240        C  0.12958410  0.87182450  0.14985937    -0.10720
C241        C  0.25242895  0.83941874  0.14635910    -0.09170
C242        C  0.30168262  0.85327100  0.12684955    -0.10720
C243        C  0.42676935  0.58577811  0.12488471    -0.09170
C244        C  0.40240386  0.60955304  0.14270598    -0.10720
C245        C  0.31548304  0.60207871  0.10949923    -0.09170
C246        C  0.28143403  0.57477259  0.07467644    -0.10720
C247        C  0.44026843  0.73543972  0.08210118    -0.09170
C248        C  0.41067750  0.69835943  0.11461024    -0.10720
C249        C  0.35642983  0.64768698  0.19322772    -0.09170
C250        C  0.35551788  0.64701848  0.23846693    -0.10720
C251        C  0.12256375  0.73100118  0.38735260    -0.09170
C252        C  0.15001831  0.76494618  0.35235560    -0.10720
C253        C  0.13810146  0.87894260  0.33651690    -0.09170
C254        C  0.16025304  0.85298463  0.31872604    -0.10720
C255        C  0.24789713  0.85841272  0.34631913    -0.09170
C256        C  0.28518581  0.88788807  0.37858359    -0.10720
C257        C  0.19466104  0.80320296  0.22298217    -0.09170
C258        C  0.19577087  0.80459697  0.26821014    -0.10720
C259        C  0.18948087  0.81855364  0.82003014     0.01620
C260        C  0.36966354  0.64052843  0.64138747     0.01620
C261        C  0.18894032  0.80875856  0.66868922     0.01620
C262        C  0.36147619  0.64157810  0.79273502     0.01620
O263        O  0.36708119  0.96681861  0.92601310    -0.76020
O264        O  0.01899156  0.81787318  0.53461087    -0.77580
O265        O  0.39860156  0.80006280  0.90698960    -0.74600
O266        O  0.34903510  0.84664700  0.55390448    -0.72980
O267        O  0.41150074  0.90816624  0.61794776    -0.74770
O268        O  0.96054546  0.86348615  0.84313267    -0.75700
O269        O  0.41607118  0.78228589  0.02138722    -0.77030
O270        O  0.33217878  0.86436235  0.93961912    -0.77320
Eu271      Eu  0.41757216  0.86710462  0.98057178     2.39200
O272        O  0.99927919  0.89654605  0.53712489    -0.84830
O273        O  0.44683433  0.94890874  0.92401623    -0.88430
C274        C  0.32873738  0.90793575  0.91872078     1.06260
C275        C  0.46002662  0.77912754  0.54199291     1.06080
C276        C  0.42125469  0.80919096  0.86223370     1.06020
C277        C  0.35740779  0.86880186  0.59868617     1.03880
H278        H  0.00636557  0.85632336  0.92497161     0.33630
O279        O  0.00932470  0.89255847  0.93867083    -0.97220
H280        H  0.40454078  0.95424170  0.03622852     0.33660
O281        O  0.44122697  0.95769936  0.02265450    -0.99760
O282        O  0.20053886  0.99503937  0.52701660    -0.76980
O283        O  0.04292517  0.64930415  0.93488202    -0.76520
O284        O  0.08476925  0.92516663  0.84725571    -0.74960
O285        O  0.07316557  0.92557423  0.62931157    -0.78300
O286        O  0.47252349  0.53204496  0.61413364    -0.76160
O287        O  0.97769616  0.02514246  0.83203215    -0.74800
O288        O  0.20279487  0.59799423  0.90794433    -0.76330
O289        O  0.14604973  0.65159724  0.55411627    -0.78250
O290        O  0.13911543  0.53915412  0.84333251    -0.74990
O291        O  0.08682142  0.58695379  0.61850958    -0.77660
O292        O  0.12039995  0.89735275  0.91647624    -0.73400
O293        O  0.44490693  0.56736031  0.89035627    -0.73430
O294        O  0.44481597  0.56777591  0.04490693    -0.73080
O295        O  0.11792722  0.89544085  0.57106274    -0.76610
O296        O  0.22931229  0.59649585  0.51678657    -0.76000
O297        O  0.14490529  0.67929325  0.94524367    -0.74320
Eu298      Eu  0.09096581  0.92319576  0.49583231     2.39770
Eu299      Eu  0.47171350  0.53942496  0.96553620     2.39570
Eu300      Eu  0.03128326  0.97105611  0.87689832     2.38400
Eu301      Eu  0.01958989  0.97967839  0.58451026     2.39880
Eu302      Eu  0.13873271  0.58917475  0.98089299     2.39790
O303        O  0.04854121  0.56079251  0.02441068    -0.88740
O304        O  0.11223963  0.00015900  0.93707756    -0.87630
C305        C  0.23703504  0.55415987  0.53480683     1.06430
C306        C  0.10213984  0.68647628  0.92722929     1.05150
C307        C  0.11330435  0.90226919  0.86885365     1.04540
C308        C  0.10499089  0.90007929  0.61601959     1.06550
C309        C  0.44958409  0.56052306  0.59253068     1.05470
C310        C  0.95125614  0.55608563  0.84533769     1.04320
C311        C  0.19349282  0.57599939  0.86312630     1.04380
C312        C  0.12357313  0.64152908  0.59890590     1.06990
H313        H  0.07244288  0.58808074  0.89202651     0.34360
O314        O  0.05987108  0.55998592  0.92032046    -1.00900
H315        H  0.13745750  0.52245985  0.56978163     0.36410
O316        O  0.10963455  0.51002971  0.54137469    -1.03460
C317        C  0.39658812  0.60882080  0.80150111    -0.09170
C318        C  0.42414288  0.58178939  0.81143528    -0.10720
C319        C  0.29805980  0.60751392  0.81471693    -0.09170
C320        C  0.24854545  0.59127276  0.83458828    -0.10720
C321        C  0.40628321  0.75407000  0.83391463    -0.09170
C322        C  0.39247345  0.70499337  0.81457743    -0.10720
C323        C  0.15455722  0.74536423  0.64728462    -0.09170
C324        C  0.13831364  0.69598606  0.62762442    -0.10720
C325        C  0.15622229  0.84388762  0.65982017    -0.09170
C326        C  0.12958410  0.87182452  0.64985936    -0.10720
C327        C  0.25242895  0.83941876  0.64635909    -0.09170
C328        C  0.30168261  0.85327102  0.62684953    -0.10720
C329        C  0.42676937  0.58577814  0.62488471    -0.09170
C330        C  0.40240388  0.60955307  0.64270598    -0.10720
C331        C  0.31548305  0.60207873  0.60949924    -0.09170
C332        C  0.28143404  0.57477260  0.57467646    -0.10720
C333        C  0.44026844  0.73543974  0.58210117    -0.09170
C334        C  0.41067751  0.69835945  0.61461024    -0.10720
C335        C  0.35642985  0.64768701  0.69322773    -0.09170
C336        C  0.35551791  0.64701851  0.73846693    -0.10720
C337        C  0.12256376  0.73100119  0.88735258    -0.09170
C338        C  0.15001833  0.76494619  0.85235559    -0.10720
C339        C  0.13810147  0.87894261  0.83651691    -0.09170
C340        C  0.16025306  0.85298465  0.81872605    -0.10720
C341        C  0.24789714  0.85841274  0.84631914    -0.09170
C342        C  0.28518582  0.88788809  0.87858361    -0.10720
C343        C  0.19466107  0.80320300  0.72298217    -0.09170
C344        C  0.19577090  0.80459701  0.76821014    -0.10720
C345        C  0.68943745  0.31854101  0.32001414     0.01620
C346        C  0.86971600  0.14051548  0.14138739     0.01620
C347        C  0.68887134  0.30875224  0.16866775     0.01620
C348        C  0.86151885  0.14157590  0.29273815     0.01620
O349        O  0.86702532  0.46683023  0.42598982    -0.76020
O350        O  0.51893830  0.31789186  0.03460622    -0.77580
O351        O  0.89856798  0.30005750  0.40697471    -0.74600
O352        O  0.84896744  0.34664941  0.05388172    -0.72980
O353        O  0.91142897  0.40816847  0.11792738    -0.74770
O354        O  0.46051558  0.36348471  0.34312064    -0.75700
O355        O  0.91601480  0.28229242  0.52138408    -0.77030
O356        O  0.83213707  0.36437328  0.43957519    -0.77320
Eu357      Eu  0.91751297  0.36710242  0.48055308     2.39200
O358        O  0.49921941  0.39655355  0.03711059    -0.84830
O359        O  0.94678519  0.44891178  0.42400125    -0.88430
C360        C  0.82869221  0.40794926  0.41868491     1.06260
C361        C  0.95997464  0.27913960  0.04198781     1.06080
C362        C  0.92123108  0.30918719  0.36222172     1.06020
C363        C  0.85733728  0.36880586  0.09866314     1.03880
H364        H  0.50632179  0.35633463  0.42497187     0.33630
O365        O  0.50927638  0.39256971  0.43866557    -0.97220
H366        H  0.90447544  0.45423411  0.53619937     0.33660
O367        O  0.94116638  0.45769753  0.52263107    -0.99760
O368        O  0.70048187  0.49508390  0.02702385    -0.76980
O369        O  0.54299406  0.14929866  0.43489983    -0.76520
O370        O  0.58471166  0.42514462  0.34726191    -0.74960
O371        O  0.57308214  0.42556091  0.12929956    -0.78300
O372        O  0.97264546  0.03209284  0.11415306    -0.76160
O373        O  0.47764380  0.52513308  0.33201235    -0.74800
O374        O  0.70285084  0.09797922  0.40795019    -0.76330
O375        O  0.64608999  0.15159695  0.05411548    -0.78250
O376        O  0.63915965  0.03914738  0.34333998    -0.74990
O377        O  0.58687737  0.08695612  0.11851533    -0.77660
O378        O  0.62034231  0.39734004  0.41648766    -0.73400
O379        O  0.94496908  0.06737335  0.39038040    -0.73430
O380        O  0.94492966  0.06781464  0.54492566    -0.73080
O381        O  0.61786982  0.39545134  0.07105537    -0.76610
O382        O  0.72937061  0.09645551  0.01680845    -0.76000
O383        O  0.64497593  0.17928374  0.44524475    -0.74320
Eu384      Eu  0.59091526  0.42321441  0.99582902     2.39770
Eu385      Eu  0.97177704  0.03942295  0.46555326     2.39570
Eu386      Eu  0.53123765  0.47105915  0.37688639     2.38400
Eu387      Eu  0.51952049  0.47968113  0.08449610     2.39880
Eu388      Eu  0.63880299  0.08916643  0.48090499     2.39790
O389        O  0.54860909  0.06077601  0.52441702    -0.88740
O390        O  0.61219389  0.50017217  0.43706764    -0.87630
C391        C  0.73709396  0.05411158  0.03481210     1.06430
C392        C  0.60220689  0.18646782  0.42723849     1.05150
C393        C  0.61323813  0.40224026  0.36886461     1.04540
C394        C  0.60491539  0.40007282  0.11601012     1.06550
C395        C  0.94971827  0.06058251  0.09254942     1.05470
C396        C  0.45131363  0.05609900  0.34536037     1.04320
C397        C  0.69354028  0.07598653  0.36313118     1.04380
C398        C  0.62360853  0.14153092  0.09890372     1.06990
H399        H  0.57250440  0.08807252  0.39204110     0.34360
O400        O  0.55993327  0.05998070  0.42033701    -1.00900
H401        H  0.63752583  0.02244002  0.06978742     0.36410
O402        O  0.60969984  0.01001528  0.04138288    -1.03460
C403        C  0.89664370  0.10883338  0.30151767    -0.09170
C404        C  0.92420068  0.08180556  0.31145908    -0.10720
C405        C  0.79810224  0.10750164  0.31471709    -0.09170
C406        C  0.74858761  0.09125678  0.33458846    -0.10720
C407        C  0.90628297  0.25406801  0.33390771    -0.09170
C408        C  0.89249625  0.20499524  0.31457409    -0.10720
C409        C  0.65451152  0.24535694  0.14726367    -0.09170
C410        C  0.63830818  0.19598523  0.12760907    -0.10720
C411        C  0.65613570  0.34386575  0.15980172    -0.09170
C412        C  0.62949625  0.37180372  0.14984775    -0.10720
C413        C  0.75235965  0.33942759  0.14633609    -0.09170
C414        C  0.80161183  0.35327944  0.12682409    -0.10720
C415        C  0.92693029  0.08586702  0.12490026    -0.09170
C416        C  0.90253286  0.10961694  0.14270912    -0.10720
C417        C  0.81554407  0.10201429  0.10950352    -0.09170
C418        C  0.78149683  0.07470707  0.07467940    -0.10720
C419        C  0.94022656  0.23544673  0.08209093    -0.09170
C420        C  0.91066852  0.19835625  0.11460262    -0.10720
C421        C  0.85646859  0.14765959  0.19322786    -0.09170
C422        C  0.85555879  0.14699978  0.23846742    -0.10720
C423        C  0.62261512  0.23098719  0.38735902    -0.09170
C424        C  0.65002915  0.26492903  0.35235076    -0.10720
C425        C  0.63801269  0.37888449  0.33653354    -0.09170
C426        C  0.66016561  0.35293110  0.31873535    -0.10720
C427        C  0.74786177  0.35843219  0.34628005    -0.09170
C428        C  0.78514947  0.38791086  0.37854316    -0.10720
C429        C  0.69459695  0.30320005  0.22296026    -0.09170
C430        C  0.69571342  0.30459267  0.26818818    -0.10720
C431        C  0.68943743  0.31854099  0.82001414     0.01620
C432        C  0.86971598  0.14051547  0.64138739     0.01620
C433        C  0.68887133  0.30875223  0.66866775     0.01620
C434        C  0.86151884  0.14157588  0.79273816     0.01620
O435        O  0.86702533  0.46683023  0.92598980    -0.76020
O436        O  0.51893830  0.31789188  0.53460624    -0.77580
O437        O  0.89856798  0.30005750  0.90697469    -0.74600
O438        O  0.84896744  0.34664941  0.55388174    -0.72980
O439        O  0.91142897  0.40816847  0.61792741    -0.74770
O440        O  0.46051558  0.36348471  0.84312064    -0.75700
O441        O  0.91601480  0.28229242  0.02138405    -0.77030
O442        O  0.83213708  0.36437328  0.93957517    -0.77320
Eu443      Eu  0.91751297  0.36710242  0.98055305     2.39200
O444        O  0.49921941  0.39655356  0.53711060    -0.84830
O445        O  0.94678519  0.44891177  0.92400123    -0.88430
C446        C  0.82869221  0.40794925  0.91868489     1.06260
C447        C  0.95997464  0.27913961  0.54198783     1.06080
C448        C  0.92123108  0.30918718  0.86222170     1.06020
C449        C  0.85733728  0.36880586  0.59866316     1.03880
H450        H  0.50632178  0.35633463  0.92497186     0.33630
O451        O  0.50927637  0.39256970  0.93866556    -0.97220
H452        H  0.90447544  0.45423411  0.03619935     0.33660
O453        O  0.94116638  0.45769753  0.02263104    -0.99760
O454        O  0.70048187  0.49508392  0.52702386    -0.76980
O455        O  0.54299407  0.14929866  0.93489986    -0.76520
O456        O  0.58471165  0.42514461  0.84726190    -0.74960
O457        O  0.57308214  0.42556092  0.62929956    -0.78300
O458        O  0.97264544  0.03209284  0.61415303    -0.76160
O459        O  0.47764380  0.52513308  0.83201234    -0.74800
O460        O  0.70285084  0.09797921  0.90795021    -0.76330
O461        O  0.64608998  0.15159696  0.55411546    -0.78250
O462        O  0.63915964  0.03914738  0.84334000    -0.74990
O463        O  0.58687736  0.08695613  0.61851530    -0.77660
O464        O  0.62034230  0.39734003  0.91648765    -0.73400
O465        O  0.94496908  0.06737335  0.89038042    -0.73430
O466        O  0.94492968  0.06781464  0.04492569    -0.73080
O467        O  0.61786982  0.39545135  0.57105538    -0.76610
O468        O  0.72937060  0.09645552  0.51680843    -0.76000
O469        O  0.64497594  0.17928373  0.94524477    -0.74320
Eu470      Eu  0.59091527  0.42321442  0.49582903     2.39770
Eu471      Eu  0.97177705  0.03942294  0.96555328     2.39570
Eu472      Eu  0.53123765  0.47105914  0.87688638     2.38400
Eu473      Eu  0.51952049  0.47968114  0.58449611     2.39880
Eu474      Eu  0.63880299  0.08916642  0.98090501     2.39790
O475        O  0.54860910  0.06077600  0.02441704    -0.88740
O476        O  0.61219389  0.50017216  0.93706763    -0.87630
C477        C  0.73709395  0.05411160  0.53481209     1.06430
C478        C  0.60220690  0.18646782  0.92723852     1.05150
C479        C  0.61323811  0.40224024  0.86886460     1.04540
C480        C  0.60491538  0.40007283  0.61601013     1.06550
C481        C  0.94971825  0.06058251  0.59254939     1.05470
C482        C  0.45131363  0.05609900  0.84536039     1.04320
C483        C  0.69354027  0.07598653  0.86313119     1.04380
C484        C  0.62360852  0.14153093  0.59890369     1.06990
H485        H  0.57250441  0.08807252  0.89204112     0.34360
O486        O  0.55993328  0.05998070  0.92033703    -1.00900
H487        H  0.63752582  0.02244003  0.56978741     0.36410
O488        O  0.60969983  0.01001529  0.54138286    -1.03460
C489        C  0.89664370  0.10883337  0.80151769    -0.09170
C490        C  0.92420067  0.08180555  0.81145910    -0.10720
C491        C  0.79810223  0.10750163  0.81471710    -0.09170
C492        C  0.74858761  0.09125678  0.83458848    -0.10720
C493        C  0.90628297  0.25406801  0.83390769    -0.09170
C494        C  0.89249625  0.20499523  0.81457408    -0.10720
C495        C  0.65451151  0.24535694  0.64726366    -0.09170
C496        C  0.63830817  0.19598523  0.62760905    -0.10720
C497        C  0.65613569  0.34386575  0.65980172    -0.09170
C498        C  0.62949624  0.37180372  0.64984776    -0.10720
C499        C  0.75235964  0.33942759  0.64633610    -0.09170
C500        C  0.80161183  0.35327944  0.62682411    -0.10720
C501        C  0.92693026  0.08586701  0.62490024    -0.09170
C502        C  0.90253284  0.10961693  0.64270910    -0.10720
C503        C  0.81554405  0.10201430  0.60950351    -0.09170
C504        C  0.78149682  0.07470708  0.57467939    -0.10720
C505        C  0.94022655  0.23544674  0.58209096    -0.09170
C506        C  0.91066851  0.19835625  0.61460263    -0.10720
C507        C  0.85646857  0.14765956  0.69322787    -0.09170
C508        C  0.85555878  0.14699975  0.73846743    -0.10720
C509        C  0.62261513  0.23098719  0.88735904    -0.09170
C510        C  0.65002915  0.26492901  0.85235077    -0.10720
C511        C  0.63801266  0.37888446  0.83653353    -0.09170
C512        C  0.66016559  0.35293107  0.81873535    -0.10720
C513        C  0.74786176  0.35843217  0.84628004    -0.09170
C514        C  0.78514947  0.38791086  0.87854314    -0.10720
C515        C  0.69459692  0.30320002  0.72296026    -0.09170
C516        C  0.69571339  0.30459264  0.76818818    -0.10720
C517        C  0.68948085  0.81855361  0.32003014     0.01620
C518        C  0.86966353  0.64052840  0.14138747     0.01620
C519        C  0.68894031  0.80875854  0.16868922     0.01620
C520        C  0.86147617  0.64157809  0.29273502     0.01620
O521        O  0.86708118  0.96681860  0.42601308    -0.76020
O522        O  0.51899156  0.81787317  0.03461087    -0.77580
O523        O  0.89860156  0.80006279  0.40698959    -0.74600
O524        O  0.84903510  0.84664699  0.05390450    -0.72980
O525        O  0.91150074  0.90816623  0.11794778    -0.74770
O526        O  0.46054547  0.86348616  0.34313265    -0.75700
O527        O  0.91607117  0.78228590  0.52138721    -0.77030
O528        O  0.83217877  0.86436234  0.43961912    -0.77320
Eu529      Eu  0.91757216  0.86710461  0.48057176     2.39200
O530        O  0.49927919  0.89654605  0.03712490    -0.84830
O531        O  0.94683432  0.94890873  0.42401621    -0.88430
C532        C  0.82873737  0.90793574  0.41872077     1.06260
C533        C  0.96002662  0.77912752  0.04199293     1.06080
C534        C  0.92125469  0.80919095  0.36223369     1.06020
C535        C  0.85740780  0.86880185  0.09868619     1.03880
H536        H  0.50636558  0.85632337  0.42497159     0.33630
O537        O  0.50932470  0.89255848  0.43867081    -0.97220
H538        H  0.90454077  0.95424170  0.53622850     0.33660
O539        O  0.94122697  0.95769936  0.52265448    -0.99760
O540        O  0.70053887  0.99503936  0.02701660    -0.76980
O541        O  0.54292516  0.64930414  0.43488204    -0.76520
O542        O  0.58476926  0.92516663  0.34725569    -0.74960
O543        O  0.57316558  0.92557422  0.12931158    -0.78300
O544        O  0.97252349  0.53204495  0.11413363    -0.76160
O545        O  0.47769616  0.02514247  0.33203212    -0.74800
O546        O  0.70279487  0.59799423  0.40794434    -0.76330
O547        O  0.64604973  0.65159722  0.05411626    -0.78250
O548        O  0.63911542  0.53915412  0.34333253    -0.74990
O549        O  0.58682142  0.58695378  0.11850957    -0.77660
O550        O  0.62039995  0.89735275  0.41647623    -0.73400
O551        O  0.94490693  0.56736032  0.39035627    -0.73430
O552        O  0.94481598  0.56777592  0.54490694    -0.73080
O553        O  0.61792722  0.89544084  0.07106275    -0.76610
O554        O  0.72931228  0.59649583  0.01678656    -0.76000
O555        O  0.64490527  0.67929325  0.44524369    -0.74320
Eu556      Eu  0.59096582  0.92319575  0.99583232     2.39770
Eu557      Eu  0.97171350  0.53942497  0.46553621     2.39570
Eu558      Eu  0.53128327  0.97105611  0.37689830     2.38400
Eu559      Eu  0.51958990  0.97967838  0.08451028     2.39880
Eu560      Eu  0.63873270  0.58917475  0.48089301     2.39790
O561        O  0.54854121  0.56079252  0.52441070    -0.88740
O562        O  0.61223963  0.00015901  0.43707754    -0.87630
C563        C  0.73703504  0.55415985  0.03480682     1.06430
C564        C  0.60213982  0.68647628  0.42722931     1.05150
C565        C  0.61330435  0.90226920  0.36885364     1.04540
C566        C  0.60499089  0.90007928  0.11601960     1.06550
C567        C  0.94958408  0.56052304  0.09253066     1.05470
C568        C  0.45125613  0.55608562  0.34533770     1.04320
C569        C  0.69349281  0.57599939  0.36312631     1.04380
C570        C  0.62357313  0.64152907  0.09890589     1.06990
H571        H  0.57244287  0.58808074  0.39202653     0.34360
O572        O  0.55987107  0.55998592  0.42032047    -1.00900
H573        H  0.63745750  0.52245984  0.06978162     0.36410
O574        O  0.60963455  0.51002969  0.04137467    -1.03460
C575        C  0.89658810  0.60882079  0.30150111    -0.09170
C576        C  0.92414288  0.58178938  0.31143528    -0.10720
C577        C  0.79805979  0.60751392  0.31471693    -0.09170
C578        C  0.74854544  0.59127276  0.33458830    -0.10720
C579        C  0.90628321  0.75406999  0.33391462    -0.09170
C580        C  0.89247344  0.70499336  0.31457742    -0.10720
C581        C  0.65455722  0.74536421  0.14728462    -0.09170
C582        C  0.63831364  0.69598604  0.12762441    -0.10720
C583        C  0.65622229  0.84388760  0.15982017    -0.09170
C584        C  0.62958410  0.87182450  0.14985937    -0.10720
C585        C  0.75242895  0.83941874  0.14635910    -0.09170
C586        C  0.80168261  0.85327100  0.12684956    -0.10720
C587        C  0.92676936  0.58577812  0.12488470    -0.09170
C588        C  0.90240387  0.60955304  0.14270598    -0.10720
C589        C  0.81548304  0.60207871  0.10949924    -0.09170
C590        C  0.78143403  0.57477258  0.07467645    -0.10720
C591        C  0.94026844  0.73543972  0.08210118    -0.09170
C592        C  0.91067750  0.69835943  0.11461024    -0.10720
C593        C  0.85642983  0.64768697  0.19322773    -0.09170
C594        C  0.85551789  0.64701848  0.23846693    -0.10720
C595        C  0.62256374  0.73100118  0.38735259    -0.09170
C596        C  0.65001831  0.76494618  0.35235560    -0.10720
C597        C  0.63810146  0.87894261  0.33651690    -0.09170
C598        C  0.66025305  0.85298463  0.31872604    -0.10720
C599        C  0.74789713  0.85841272  0.34631914    -0.09170
C600        C  0.78518581  0.88788807  0.37858360    -0.10720
C601        C  0.69466105  0.80320296  0.22298217    -0.09170
C602        C  0.69577088  0.80459697  0.26821015    -0.10720
C603        C  0.68948086  0.81855363  0.82003015     0.01620
C604        C  0.86966353  0.64052843  0.64138748     0.01620
C605        C  0.68894031  0.80875856  0.66868922     0.01620
C606        C  0.86147618  0.64157810  0.79273502     0.01620
O607        O  0.86708118  0.96681860  0.92601310    -0.76020
O608        O  0.51899157  0.81787318  0.53461086    -0.77580
O609        O  0.89860156  0.80006279  0.90698961    -0.74600
O610        O  0.84903510  0.84664700  0.55390448    -0.72980
O611        O  0.91150074  0.90816624  0.61794777    -0.74770
O612        O  0.46054546  0.86348616  0.84313267    -0.75700
O613        O  0.91607118  0.78228589  0.02138723    -0.77030
O614        O  0.83217877  0.86436234  0.93961913    -0.77320
Eu615      Eu  0.91757216  0.86710461  0.98057178     2.39200
O616        O  0.49927919  0.89654606  0.53712488    -0.84830
O617        O  0.94683432  0.94890873  0.92401623    -0.88430
C618        C  0.82873737  0.90793574  0.91872079     1.06260
C619        C  0.96002662  0.77912753  0.54199292     1.06080
C620        C  0.92125469  0.80919095  0.86223370     1.06020
C621        C  0.85740779  0.86880186  0.59868618     1.03880
H622        H  0.50636558  0.85632337  0.92497161     0.33630
O623        O  0.50932470  0.89255848  0.93867082    -0.97220
H624        H  0.90454077  0.95424170  0.03622852     0.33660
O625        O  0.94122697  0.95769935  0.02265450    -0.99760
O626        O  0.70053886  0.99503938  0.52701659    -0.76980
O627        O  0.54292516  0.64930414  0.93488203    -0.76520
O628        O  0.58476926  0.92516663  0.84725570    -0.74960
O629        O  0.57316557  0.92557423  0.62931157    -0.78300
O630        O  0.97252349  0.53204496  0.61413365    -0.76160
O631        O  0.47769616  0.02514247  0.83203214    -0.74800
O632        O  0.70279487  0.59799423  0.90794434    -0.76330
O633        O  0.64604973  0.65159724  0.55411626    -0.78250
O634        O  0.63911542  0.53915412  0.84333252    -0.74990
O635        O  0.58682142  0.58695379  0.61850957    -0.77660
O636        O  0.62039995  0.89735275  0.91647624    -0.73400
O637        O  0.94490694  0.56736032  0.89035625    -0.73430
O638        O  0.94481598  0.56777592  0.04490692    -0.73080
O639        O  0.61792722  0.89544086  0.57106273    -0.76610
O640        O  0.72931228  0.59649585  0.51678657    -0.76000
O641        O  0.64490528  0.67929324  0.94524368    -0.74320
Eu642      Eu  0.59096582  0.92319576  0.49583231     2.39770
Eu643      Eu  0.97171351  0.53942497  0.96553619     2.39570
Eu644      Eu  0.53128327  0.97105611  0.87689832     2.38400
Eu645      Eu  0.51958989  0.97967839  0.58451026     2.39880
Eu646      Eu  0.63873270  0.58917474  0.98089300     2.39790
O647        O  0.54854120  0.56079251  0.02441069    -0.88740
O648        O  0.61223964  0.00015900  0.93707756    -0.87630
C649        C  0.73703504  0.55415987  0.53480683     1.06430
C650        C  0.60213983  0.68647628  0.92722930     1.05150
C651        C  0.61330435  0.90226919  0.86885365     1.04540
C652        C  0.60499089  0.90007929  0.61601959     1.06550
C653        C  0.94958408  0.56052305  0.59253068     1.05470
C654        C  0.45125614  0.55608562  0.84533770     1.04320
C655        C  0.69349281  0.57599938  0.86312631     1.04380
C656        C  0.62357313  0.64152908  0.59890590     1.06990
H657        H  0.57244287  0.58808073  0.89202652     0.34360
O658        O  0.55987107  0.55998591  0.92032047    -1.00900
H659        H  0.63745750  0.52245985  0.56978163     0.36410
O660        O  0.60963455  0.51002971  0.54137468    -1.03460
C661        C  0.89658811  0.60882080  0.80150110    -0.09170
C662        C  0.92414288  0.58178939  0.81143527    -0.10720
C663        C  0.79805980  0.60751392  0.81471693    -0.09170
C664        C  0.74854544  0.59127275  0.83458829    -0.10720
C665        C  0.90628321  0.75406999  0.83391463    -0.09170
C666        C  0.89247344  0.70499336  0.81457743    -0.10720
C667        C  0.65455722  0.74536423  0.64728462    -0.09170
C668        C  0.63831364  0.69598606  0.62762441    -0.10720
C669        C  0.65622229  0.84388761  0.65982017    -0.09170
C670        C  0.62958410  0.87182452  0.64985936    -0.10720
C671        C  0.75242894  0.83941876  0.64635909    -0.09170
C672        C  0.80168261  0.85327101  0.62684954    -0.10720
C673        C  0.92676936  0.58577814  0.62488471    -0.09170
C674        C  0.90240387  0.60955307  0.64270599    -0.10720
C675        C  0.81548305  0.60207873  0.60949924    -0.09170
C676        C  0.78143403  0.57477260  0.57467646    -0.10720
C677        C  0.94026844  0.73543974  0.58210118    -0.09170
C678        C  0.91067751  0.69835945  0.61461024    -0.10720
C679        C  0.85642984  0.64768700  0.69322773    -0.09170
C680        C  0.85551789  0.64701850  0.73846694    -0.10720
C681        C  0.62256375  0.73100118  0.88735259    -0.09170
C682        C  0.65001832  0.76494618  0.85235560    -0.10720
C683        C  0.63810147  0.87894261  0.83651691    -0.09170
C684        C  0.66025306  0.85298464  0.81872605    -0.10720
C685        C  0.74789713  0.85841273  0.84631915    -0.09170
C686        C  0.78518581  0.88788807  0.87858361    -0.10720
C687        C  0.69466106  0.80320299  0.72298217    -0.09170
C688        C  0.69577089  0.80459699  0.76821015    -0.10720
loop_ 
_geom_bond_atom_site_label_1 
_geom_bond_atom_site_label_2 
_geom_bond_distance 
_geom_bond_site_symmetry_2 
_ccdc_geom_bond_type 
C1           C80   1.463       .  S
C1           C82   1.416       .  S
C1           C83   1.455       .  S
C1           C86   1.465       .  S
C2           C72   1.415       .  S
C2           C73   1.463       .  S
C2           C76   1.455       .  S
C2           C77   1.465       .  S
C3           C65   1.486       .  S
C3           C67   1.522       .  S
C3           C69   1.493       .  S
C3           C85   1.468       .  S
C4           C59   1.522       .  S
C4           C61   1.486       .  S
C4           C64   1.493       .  S
C4           C78   1.467       .  S
O5           C16   1.297       .  A
O5         Eu213   2.521       .  S
O6          C361   1.297   1_455  A
O6          Eu40   2.519   1_554  S
O7           C18   1.295       .  A
O7          Eu13   2.490       .  S
O8           C19   1.296       .  A
O8          Eu99   2.493   1_554  S
O9           C19   1.299       .  A
O9         Eu387   2.516       .  S
O10         C362   1.300       .  A
O10         Eu42   2.517   1_655  S
O11         C103   1.277       .  A
O11         Eu13   2.384       .  S
O12          C16   1.277       .  A
O12         Eu13   2.382       .  S
Eu13         O94   2.493       .  S
Eu13         O23   2.349       .  S
Eu13         O15   2.335       .  S
Eu13        O444   2.334       .  S
Eu13        O365   2.350       .  S
O14         Eu43   2.289   1_655  S
O14         Eu40   2.333   1_654  S
O14        Eu443   2.334   1_554  S
O15        Eu213   2.332       .  S
O15        Eu386   2.290       .  S
C16          C84   1.421       .  S
C17         O350   1.297       .  A
C17          O97   1.277       .  A
C17          C75   1.421       .  S
C18         O354   1.300       .  A
C18          C63   1.463       .  S
C19          C70   1.463       .  S
H20          O21   0.961       .  S
O21         Eu42   2.400       .  S
O21        Eu357   2.350   1_455  S
O21        Eu126   2.339       .  S
H22          O23   0.961       .  S
O23        Eu213   2.338       .  S
O23        Eu473   2.400       .  S
O24         C219   1.298       .  A
O24         Eu40   2.520   1_554  S
O25          C48   1.297       .  A
O25        Eu385   2.519   1_455  S
O26          C49   1.274       .  A
O26         Eu42   2.358       .  S
O27          C50   1.329       .  A
O27         Eu43   2.658       .  S
O28          C51   1.274       .  A
O28        Eu559   2.357   1_545  S
O29         C224   1.329       .  A
O29         Eu42   2.659   1_655  S
O30          C53   1.294       .  A
O30         Eu44   2.481       .  S
O31          C54   1.293       .  A
O31        Eu130   2.479   1_554  S
O32          C53   1.298       .  A
O32        Eu214   2.503   1_545  S
O33          C54   1.298       .  A
O33        Eu215   2.504   1_545  S
O34          C49   1.296       .  A
O34        Eu126   2.465       .  S
O35         C396   1.272       .  A
O35         Eu41   2.332       .  S
O36         C137   1.296       .  A
O36         Eu41   2.465       .  S
O37          C50   1.272       .  A
O37         Eu40   2.332   1_554  S
O38          C47   1.279       .  A
O38        Eu130   2.393   1_554  S
O39          C48   1.279       .  A
O39         Eu44   2.396       .  S
Eu40        O120   2.465       .  S
Eu40        O107   2.339       .  S
Eu40        O230   2.351   1_556  S
Eu40        O132   2.322       .  S
Eu41        O177   2.521   1_545  S
Eu41        O369   2.519       .  S
Eu41        O187   2.332   1_545  S
Eu41        O195   2.338   1_545  S
Eu41        O389   2.322       .  S
Eu41        O400   2.352       .  S
Eu42        O204   2.503       .  S
Eu42         O46   2.385       .  S
Eu42        O359   2.290   1_455  S
Eu42        O228   2.302       .  S
Eu43        O353   2.516   1_455  S
Eu43        O544   2.357   1_455  S
Eu43        O205   2.504       .  S
Eu43        O453   2.400   1_455  S
Eu43        O303   2.385       .  S
Eu43        O230   2.303       .  S
Eu44        O117   2.479       .  S
Eu44        O124   2.393       .  S
Eu44         O45   2.320       .  S
Eu44         O56   2.356       .  S
Eu44        O144   2.358       .  S
Eu44        O218   2.320       .  S
O45        Eu385   2.322   1_455  S
O45        Eu301   2.385   1_545  S
O46        Eu126   2.322       .  S
O46        Eu216   2.320       .  S
C47         O196   1.298   1_545  A
C47          C74   1.427       .  S
C48          C79   1.428       .  S
C49          C81   1.384       .  S
C50          C68   1.471       .  S
C51         O122   1.296       .  A
C51          C71   1.384       .  S
C52         O201   1.329       .  A
C52         O379   1.272       .  A
C52         C404   1.471       .  S
C53          C62   1.456       .  S
C54          C66   1.456       .  S
H55          O56   0.965       .  S
O56        Eu385   2.352   1_455  S
O56        Eu214   2.301   1_545  S
H57          O58   0.965       .  S
O58        Eu212   2.351   1_544  S
O58        Eu215   2.303   1_545  S
O58        Eu130   2.358   1_554  S
C59          C60   1.237       .  T
C60         C396   1.471       .  S
C61          C62   1.219       .  T
C63          C64   1.223       .  T
C65          C66   1.219       .  T
C67          C68   1.237       .  T
C69          C70   1.224       .  T
C71          C72   1.177       .  T
C73          C74   1.207       .  T
C75          C76   1.202       .  T
C77          C78   1.208       .  T
C79          C80   1.207       .  T
C81          C82   1.177       .  T
C83          C84   1.202       .  T
C85          C86   1.208       .  T
C87         C166   1.463       .  S
C87         C168   1.416       .  S
C87         C169   1.455       .  S
C87         C172   1.465       .  S
C88         C158   1.415       .  S
C88         C159   1.463       .  S
C88         C162   1.455       .  S
C88         C163   1.465       .  S
C89         C151   1.486       .  S
C89         C153   1.522       .  S
C89         C155   1.493       .  S
C89         C171   1.468       .  S
C90         C145   1.522       .  S
C90         C147   1.486       .  S
C90         C150   1.493       .  S
C90         C164   1.467       .  S
O91         C102   1.297       .  A
O91        Eu299   2.521       .  S
O92         C447   1.297   1_455  A
O92        Eu126   2.519       .  S
O93         C104   1.295       .  A
O93         Eu99   2.490       .  S
O94         C105   1.296       .  A
O95         C105   1.299       .  A
O95        Eu473   2.516       .  S
O96         C448   1.300       .  A
O96        Eu128   2.517   1_655  S
O97         Eu99   2.384   1_554  S
O98         C102   1.277       .  A
O98         Eu99   2.382       .  S
Eu99        O109   2.349   1_556  S
Eu99        O101   2.335       .  S
Eu99        O358   2.334   1_556  S
Eu99        O451   2.350       .  S
O100       Eu357   2.334       .  S
O100       Eu129   2.289   1_655  S
O100       Eu126   2.333   1_655  S
O101       Eu299   2.332       .  S
O101       Eu472   2.290       .  S
C102        C170   1.421       .  S
C103        O436   1.297       .  A
C103        C161   1.421       .  S
C104        O440   1.300       .  A
C104        C149   1.463       .  S
C105        C156   1.463       .  S
H106        O107   0.961       .  S
O107       Eu443   2.350   1_455  S
O107       Eu128   2.400       .  S
H108        O109   0.961       .  S
O109       Eu299   2.338   1_554  S
O109       Eu387   2.400       .  S
O110        C305   1.298       .  A
O110       Eu126   2.520       .  S
O111        C134   1.297       .  A
O111       Eu471   2.519   1_455  S
O112        C135   1.274       .  A
O112       Eu128   2.358       .  S
O113        C136   1.329       .  A
O113       Eu129   2.658       .  S
O114        C137   1.274       .  A
O114       Eu645   2.357   1_545  S
O115        C310   1.329       .  A
O115       Eu128   2.659   1_655  S
O116        C139   1.294       .  A
O116       Eu130   2.481       .  S
O117        C140   1.293       .  A
O118        C139   1.298       .  A
O118       Eu300   2.503   1_545  S
O119        C140   1.298       .  A
O119       Eu301   2.504   1_545  S
O120        C135   1.296       .  A
O121        C482   1.272       .  A
O121       Eu127   2.332       .  S
O122       Eu127   2.465   1_554  S
O123        C136   1.272       .  A
O123       Eu126   2.332       .  S
O124        C133   1.279       .  A
O125        C134   1.279       .  A
O125       Eu130   2.396       .  S
Eu126       O316   2.351       .  S
Eu127       O263   2.521   1_545  S
Eu127       O455   2.519       .  S
Eu127       O273   2.332   1_545  S
Eu127       O281   2.338   1_546  S
Eu127       O475   2.322   1_556  S
Eu127       O486   2.352       .  S
Eu128       O290   2.503       .  S
Eu128       O445   2.290   1_455  S
Eu128       O314   2.302       .  S
Eu128       O132   2.385       .  S
Eu129       O439   2.516   1_455  S
Eu129       O630   2.357   1_455  S
Eu129       O291   2.504       .  S
Eu129       O367   2.400   1_455  S
Eu129       O217   2.385       .  S
Eu129       O316   2.303       .  S
Eu130       O131   2.320   1_556  S
Eu130       O142   2.356       .  S
Eu130       O304   2.320       .  S
O131       Eu471   2.322   1_454  S
O131       Eu215   2.385   1_545  S
O132       Eu302   2.320       .  S
C133        O282   1.298   1_545  A
C133        C160   1.427       .  S
C134        C165   1.428       .  S
C135        C167   1.384       .  S
C136        C154   1.471       .  S
C137        C157   1.384       .  S
C138        O287   1.329       .  A
C138        O465   1.272       .  A
C138        C490   1.471       .  S
C139        C148   1.456       .  S
C140        C152   1.456       .  S
H141        O142   0.965       .  S
O142       Eu471   2.352   1_455  S
O142       Eu300   2.301   1_545  S
H143        O144   0.965       .  S
O144       Eu298   2.351   1_545  S
O144       Eu301   2.303   1_545  S
C145        C146   1.237       .  T
C146        C482   1.471       .  S
C147        C148   1.219       .  T
C149        C150   1.223       .  T
C151        C152   1.219       .  T
C153        C154   1.237       .  T
C155        C156   1.224       .  T
C157        C158   1.177       .  T
C159        C160   1.207       .  T
C161        C162   1.202       .  T
C163        C164   1.208       .  T
C165        C166   1.207       .  T
C167        C168   1.177       .  T
C169        C170   1.202       .  T
C171        C172   1.208       .  T
C173        C252   1.463       .  S
C173        C254   1.416       .  S
C173        C255   1.455       .  S
C173        C258   1.465       .  S
C174        C244   1.415       .  S
C174        C245   1.463       .  S
C174        C248   1.455       .  S
C174        C249   1.465       .  S
C175        C237   1.486       .  S
C175        C239   1.522       .  S
C175        C241   1.493       .  S
C175        C257   1.468       .  S
C176        C231   1.522       .  S
C176        C233   1.486       .  S
C176        C236   1.493       .  S
C176        C250   1.467       .  S
O177        C188   1.297       .  A
O178        C533   1.297   1_455  A
O178       Eu212   2.519   1_554  S
O179        C190   1.295       .  A
O179       Eu185   2.490       .  S
O180        C191   1.296       .  A
O180       Eu271   2.493   1_554  S
O181        C191   1.299       .  A
O181       Eu559   2.516       .  S
O182        C534   1.300       .  A
O182       Eu214   2.517   1_655  S
O183        C275   1.277       .  A
O183       Eu185   2.384       .  S
O184        C188   1.277       .  A
O184       Eu185   2.382       .  S
Eu185       O266   2.493       .  S
Eu185       O195   2.349       .  S
Eu185       O187   2.335       .  S
Eu185       O616   2.334       .  S
Eu185       O537   2.350       .  S
O186       Eu615   2.334   1_554  S
O186       Eu215   2.289   1_655  S
O186       Eu212   2.333   1_654  S
O187       Eu558   2.290       .  S
C188        C256   1.421       .  S
C189        O522   1.297       .  A
C189        O269   1.277       .  A
C189        C247   1.421       .  S
C190        O526   1.300       .  A
C190        C235   1.463       .  S
C191        C242   1.463       .  S
H192        O193   0.961       .  S
O193       Eu529   2.350   1_455  S
O193       Eu214   2.400       .  S
O193       Eu298   2.339       .  S
H194        O195   0.961       .  S
O195       Eu645   2.400       .  S
O196       Eu212   2.520   1_554  S
O197        C220   1.297       .  A
O197       Eu557   2.519   1_455  S
O198        C221   1.274       .  A
O198       Eu214   2.358       .  S
O199        C222   1.329       .  A
O199       Eu215   2.658       .  S
O200        C223   1.274       .  A
O200       Eu387   2.357       .  S
O201       Eu214   2.659   1_645  S
O202        C225   1.294       .  A
O202       Eu216   2.481       .  S
O203        C226   1.293       .  A
O203       Eu302   2.479   1_554  S
O204        C225   1.298       .  A
O205        C226   1.298       .  A
O206        C221   1.296       .  A
O206       Eu298   2.465       .  S
O207        C568   1.272       .  A
O207       Eu213   2.332       .  S
O208        C309   1.296       .  A
O208       Eu213   2.465       .  S
O209        C222   1.272       .  A
O209       Eu212   2.332   1_554  S
O210        C219   1.279       .  A
O210       Eu302   2.393   1_554  S
O211        C220   1.279       .  A
O211       Eu216   2.396       .  S
Eu212       O292   2.465       .  S
Eu212       O279   2.339       .  S
Eu212       O304   2.322   1_565  S
Eu213       O541   2.519       .  S
Eu213       O561   2.322       .  S
Eu213       O572   2.352       .  S
Eu214       O531   2.290   1_455  S
Eu214       O218   2.385   1_565  S
Eu215       O525   2.516   1_455  S
Eu215       O372   2.357   1_465  S
Eu215       O625   2.400   1_455  S
Eu216       O289   2.479       .  S
Eu216       O296   2.393       .  S
Eu216       O217   2.320       .  S
Eu216       O228   2.356       .  S
Eu216       O316   2.357       .  S
O217       Eu557   2.322   1_455  S
O218       Eu298   2.322   1_545  S
C219        C246   1.427       .  S
C220        C251   1.428       .  S
C221        C253   1.384       .  S
C222        C240   1.471       .  S
C223        O294   1.296       .  A
C223        C243   1.384       .  S
C224        O551   1.272       .  A
C224        C576   1.471       .  S
C225        C234   1.456       .  S
C226        C238   1.456       .  S
H227        O228   0.965       .  S
O228       Eu557   2.352   1_455  S
H229        O230   0.965       .  S
O230       Eu302   2.357   1_554  S
C231        C232   1.237       .  T
C232        C568   1.471       .  S
C233        C234   1.219       .  T
C235        C236   1.223       .  T
C237        C238   1.219       .  T
C239        C240   1.237       .  T
C241        C242   1.224       .  T
C243        C244   1.177       .  T
C245        C246   1.207       .  T
C247        C248   1.202       .  T
C249        C250   1.208       .  T
C251        C252   1.207       .  T
C253        C254   1.177       .  T
C255        C256   1.202       .  T
C257        C258   1.208       .  T
C259        C338   1.463       .  S
C259        C340   1.416       .  S
C259        C341   1.455       .  S
C259        C344   1.465       .  S
C260        C330   1.415       .  S
C260        C331   1.463       .  S
C260        C334   1.455       .  S
C260        C335   1.465       .  S
C261        C323   1.486       .  S
C261        C325   1.522       .  S
C261        C327   1.493       .  S
C261        C343   1.468       .  S
C262        C317   1.522       .  S
C262        C319   1.486       .  S
C262        C322   1.493       .  S
C262        C336   1.467       .  S
O263        C274   1.297       .  A
O264        C619   1.297   1_455  A
O264       Eu298   2.519       .  S
O265        C276   1.295       .  A
O265       Eu271   2.490       .  S
O266        C277   1.296       .  A
O267        C277   1.299       .  A
O267       Eu645   2.516       .  S
O268        C620   1.300       .  A
O268       Eu300   2.517   1_655  S
O269       Eu271   2.384   1_554  S
O270        C274   1.277       .  A
O270       Eu271   2.382       .  S
Eu271       O281   2.349   1_556  S
Eu271       O273   2.335       .  S
Eu271       O530   2.334   1_556  S
Eu271       O623   2.350       .  S
O272       Eu529   2.334       .  S
O272       Eu301   2.289   1_655  S
O272       Eu298   2.333   1_655  S
O273       Eu644   2.290       .  S
C274        C342   1.421       .  S
C275        O608   1.297       .  A
C275        C333   1.421       .  S
C276        O612   1.300       .  A
C276        C321   1.463       .  S
C277        C328   1.463       .  S
H278        O279   0.961       .  S
O279       Eu615   2.350   1_455  S
O279       Eu300   2.400       .  S
H280        O281   0.961       .  S
O281       Eu559   2.400       .  S
O282       Eu298   2.520       .  S
O283        C306   1.297       .  A
O283       Eu643   2.519   1_455  S
O284        C307   1.274       .  A
O284       Eu300   2.358       .  S
O285        C308   1.329       .  A
O285       Eu301   2.658       .  S
O286        C309   1.274       .  A
O286       Eu473   2.357       .  S
O287       Eu300   2.659   1_645  S
O288        C311   1.294       .  A
O288       Eu302   2.481       .  S
O289        C312   1.293       .  A
O290        C311   1.298       .  A
O291        C312   1.298       .  A
O292        C307   1.296       .  A
O293        C654   1.272       .  A
O293       Eu299   2.332       .  S
O294       Eu299   2.465   1_554  S
O295        C308   1.272       .  A
O295       Eu298   2.332       .  S
O296        C305   1.279       .  A
O297        C306   1.279       .  A
O297       Eu302   2.396       .  S
Eu299       O627   2.519       .  S
Eu299       O647   2.322   1_556  S
Eu299       O658   2.352       .  S
Eu300       O617   2.290   1_455  S
Eu300       O304   2.385   1_565  S
Eu301       O611   2.516   1_455  S
Eu301       O458   2.357   1_465  S
Eu301       O539   2.400   1_455  S
Eu302       O303   2.320   1_556  S
Eu302       O314   2.356       .  S
O303       Eu643   2.322   1_454  S
C305        C332   1.427       .  S
C306        C337   1.428       .  S
C307        C339   1.384       .  S
C308        C326   1.471       .  S
C309        C329   1.384       .  S
C310        O637   1.272       .  A
C310        C662   1.471       .  S
C311        C320   1.456       .  S
C312        C324   1.456       .  S
H313        O314   0.965       .  S
O314       Eu643   2.352   1_455  S
H315        O316   0.965       .  S
C317        C318   1.237       .  T
C318        C654   1.471       .  S
C319        C320   1.219       .  T
C321        C322   1.223       .  T
C323        C324   1.219       .  T
C325        C326   1.237       .  T
C327        C328   1.224       .  T
C329        C330   1.177       .  T
C331        C332   1.207       .  T
C333        C334   1.202       .  T
C335        C336   1.208       .  T
C337        C338   1.207       .  T
C339        C340   1.177       .  T
C341        C342   1.202       .  T
C343        C344   1.208       .  T
C345        C424   1.463       .  S
C345        C426   1.416       .  S
C345        C427   1.455       .  S
C345        C430   1.465       .  S
C346        C416   1.415       .  S
C346        C417   1.463       .  S
C346        C420   1.455       .  S
C346        C421   1.465       .  S
C347        C409   1.486       .  S
C347        C411   1.522       .  S
C347        C413   1.493       .  S
C347        C429   1.468       .  S
C348        C403   1.522       .  S
C348        C405   1.486       .  S
C348        C408   1.493       .  S
C348        C422   1.467       .  S
O349        C360   1.297       .  A
O349       Eu557   2.521       .  S
O350       Eu384   2.519   1_554  S
O351        C362   1.295       .  A
O351       Eu357   2.490       .  S
O352        C363   1.296       .  A
O352       Eu443   2.493   1_554  S
O353        C363   1.299       .  A
O354       Eu386   2.517       .  S
O355        C447   1.277       .  A
O355       Eu357   2.384       .  S
O356        C360   1.277       .  A
O356       Eu357   2.382       .  S
Eu357       O438   2.493       .  S
Eu357       O367   2.349       .  S
Eu357       O359   2.335       .  S
O358       Eu387   2.289       .  S
O358       Eu384   2.333   1_554  S
O359       Eu557   2.332       .  S
C360        C428   1.421       .  S
C361        O441   1.277       .  A
C361        C419   1.421       .  S
C362        C407   1.463       .  S
C363        C414   1.463       .  S
H364        O365   0.961       .  S
O365       Eu386   2.400       .  S
O365       Eu470   2.339       .  S
H366        O367   0.961       .  S
O367       Eu557   2.338       .  S
O368        C563   1.298       .  A
O368       Eu384   2.520   1_554  S
O369        C392   1.297       .  A
O370        C393   1.274       .  A
O370       Eu386   2.358       .  S
O371        C394   1.329       .  A
O371       Eu387   2.658       .  S
O372        C395   1.274       .  A
O373        C568   1.329       .  A
O373       Eu386   2.659       .  S
O374        C397   1.294       .  A
O374       Eu388   2.481       .  S
O375        C398   1.293       .  A
O375       Eu474   2.479   1_554  S
O376        C397   1.298       .  A
O376       Eu558   2.503   1_545  S
O377        C398   1.298       .  A
O377       Eu559   2.504   1_545  S
O378        C393   1.296       .  A
O378       Eu470   2.465       .  S
O379       Eu385   2.332       .  S
O380        C481   1.296       .  A
O380       Eu385   2.465       .  S
O381        C394   1.272       .  A
O381       Eu384   2.332   1_554  S
O382        C391   1.279       .  A
O382       Eu474   2.393   1_554  S
O383        C392   1.279       .  A
O383       Eu388   2.396       .  S
Eu384       O464   2.465       .  S
Eu384       O451   2.339       .  S
Eu384       O574   2.351   1_556  S
Eu384       O476   2.322       .  S
Eu385       O521   2.521   1_545  S
Eu385       O531   2.332   1_545  S
Eu385       O539   2.338   1_545  S
Eu386       O548   2.503       .  S
Eu386       O572   2.302       .  S
Eu386       O390   2.385       .  S
Eu387       O549   2.504       .  S
Eu387       O647   2.385       .  S
Eu387       O574   2.303       .  S
Eu388       O461   2.479       .  S
Eu388       O468   2.393       .  S
Eu388       O389   2.320       .  S
Eu388       O400   2.356       .  S
Eu388       O488   2.358       .  S
Eu388       O562   2.320       .  S
O389       Eu645   2.385   1_545  S
O390       Eu470   2.322       .  S
O390       Eu560   2.320       .  S
C391        O540   1.298   1_545  A
C391        C418   1.427       .  S
C392        C423   1.428       .  S
C393        C425   1.384       .  S
C394        C412   1.471       .  S
C395        O466   1.296       .  A
C395        C415   1.384       .  S
C396        O545   1.329       .  A
C397        C406   1.456       .  S
C398        C410   1.456       .  S
H399        O400   0.965       .  S
O400       Eu558   2.301   1_545  S
H401        O402   0.965       .  S
O402       Eu556   2.351   1_544  S
O402       Eu559   2.303   1_545  S
O402       Eu474   2.358   1_554  S
C403        C404   1.237       .  T
C405        C406   1.219       .  T
C407        C408   1.223       .  T
C409        C410   1.219       .  T
C411        C412   1.237       .  T
C413        C414   1.224       .  T
C415        C416   1.177       .  T
C417        C418   1.207       .  T
C419        C420   1.202       .  T
C421        C422   1.208       .  T
C423        C424   1.207       .  T
C425        C426   1.177       .  T
C427        C428   1.202       .  T
C429        C430   1.208       .  T
C431        C510   1.463       .  S
C431        C512   1.416       .  S
C431        C513   1.455       .  S
C431        C516   1.465       .  S
C432        C502   1.415       .  S
C432        C503   1.463       .  S
C432        C506   1.455       .  S
C432        C507   1.465       .  S
C433        C495   1.486       .  S
C433        C497   1.522       .  S
C433        C499   1.493       .  S
C433        C515   1.468       .  S
C434        C489   1.522       .  S
C434        C491   1.486       .  S
C434        C494   1.493       .  S
C434        C508   1.467       .  S
O435        C446   1.297       .  A
O435       Eu643   2.521       .  S
O436       Eu470   2.519       .  S
O437        C448   1.295       .  A
O437       Eu443   2.490       .  S
O438        C449   1.296       .  A
O439        C449   1.299       .  A
O440       Eu472   2.517       .  S
O441       Eu443   2.384   1_554  S
O442        C446   1.277       .  A
O442       Eu443   2.382       .  S
Eu443       O453   2.349   1_556  S
Eu443       O445   2.335       .  S
O444       Eu473   2.289       .  S
O444       Eu470   2.333       .  S
O445       Eu643   2.332       .  S
C446        C514   1.421       .  S
C447        C505   1.421       .  S
C448        C493   1.463       .  S
C449        C500   1.463       .  S
H450        O451   0.961       .  S
O451       Eu472   2.400       .  S
H452        O453   0.961       .  S
O453       Eu643   2.338   1_554  S
O454        C649   1.298       .  A
O454       Eu470   2.520       .  S
O455        C478   1.297       .  A
O456        C479   1.274       .  A
O456       Eu472   2.358       .  S
O457        C480   1.329       .  A
O457       Eu473   2.658       .  S
O458        C481   1.274       .  A
O459        C654   1.329       .  A
O459       Eu472   2.659       .  S
O460        C483   1.294       .  A
O460       Eu474   2.481       .  S
O461        C484   1.293       .  A
O462        C483   1.298       .  A
O462       Eu644   2.503   1_545  S
O463        C484   1.298       .  A
O463       Eu645   2.504   1_545  S
O464        C479   1.296       .  A
O465       Eu471   2.332       .  S
O466       Eu471   2.465   1_554  S
O467        C480   1.272       .  A
O467       Eu470   2.332       .  S
O468        C477   1.279       .  A
O469        C478   1.279       .  A
O469       Eu474   2.396       .  S
Eu470       O660   2.351       .  S
Eu471       O607   2.521   1_545  S
Eu471       O617   2.332   1_545  S
Eu471       O625   2.338   1_546  S
Eu472       O634   2.503       .  S
Eu472       O658   2.302       .  S
Eu472       O476   2.385       .  S
Eu473       O635   2.504       .  S
Eu473       O561   2.385       .  S
Eu473       O660   2.303       .  S
Eu474       O475   2.320   1_556  S
Eu474       O486   2.356       .  S
Eu474       O648   2.320       .  S
O475       Eu559   2.385   1_545  S
O476       Eu646   2.320       .  S
C477        O626   1.298   1_545  A
C477        C504   1.427       .  S
C478        C509   1.428       .  S
C479        C511   1.384       .  S
C480        C498   1.471       .  S
C481        C501   1.384       .  S
C482        O631   1.329       .  A
C483        C492   1.456       .  S
C484        C496   1.456       .  S
H485        O486   0.965       .  S
O486       Eu644   2.301   1_545  S
H487        O488   0.965       .  S
O488       Eu642   2.351   1_545  S
O488       Eu645   2.303   1_545  S
C489        C490   1.237       .  T
C491        C492   1.219       .  T
C493        C494   1.223       .  T
C495        C496   1.219       .  T
C497        C498   1.237       .  T
C499        C500   1.224       .  T
C501        C502   1.177       .  T
C503        C504   1.207       .  T
C505        C506   1.202       .  T
C507        C508   1.208       .  T
C509        C510   1.207       .  T
C511        C512   1.177       .  T
C513        C514   1.202       .  T
C515        C516   1.208       .  T
C517        C596   1.463       .  S
C517        C598   1.416       .  S
C517        C599   1.455       .  S
C517        C602   1.465       .  S
C518        C588   1.415       .  S
C518        C589   1.463       .  S
C518        C592   1.455       .  S
C518        C593   1.465       .  S
C519        C581   1.486       .  S
C519        C583   1.522       .  S
C519        C585   1.493       .  S
C519        C601   1.468       .  S
C520        C575   1.522       .  S
C520        C577   1.486       .  S
C520        C580   1.493       .  S
C520        C594   1.467       .  S
O521        C532   1.297       .  A
O522       Eu556   2.519   1_554  S
O523        C534   1.295       .  A
O523       Eu529   2.490       .  S
O524        C535   1.296       .  A
O524       Eu615   2.493   1_554  S
O525        C535   1.299       .  A
O526       Eu558   2.517       .  S
O527        C619   1.277       .  A
O527       Eu529   2.384       .  S
O528        C532   1.277       .  A
O528       Eu529   2.382       .  S
Eu529       O610   2.493       .  S
Eu529       O539   2.349       .  S
Eu529       O531   2.335       .  S
O530       Eu559   2.289       .  S
O530       Eu556   2.333   1_554  S
C532        C600   1.421       .  S
C533        O613   1.277       .  A
C533        C591   1.421       .  S
C534        C579   1.463       .  S
C535        C586   1.463       .  S
H536        O537   0.961       .  S
O537       Eu558   2.400       .  S
O537       Eu642   2.339       .  S
H538        O539   0.961       .  S
O540       Eu556   2.520   1_554  S
O541        C564   1.297       .  A
O542        C565   1.274       .  A
O542       Eu558   2.358       .  S
O543        C566   1.329       .  A
O543       Eu559   2.658       .  S
O544        C567   1.274       .  A
O545       Eu558   2.659   1_545  S
O546        C569   1.294       .  A
O546       Eu560   2.481       .  S
O547        C570   1.293       .  A
O547       Eu646   2.479   1_554  S
O548        C569   1.298       .  A
O549        C570   1.298       .  A
O550        C565   1.296       .  A
O550       Eu642   2.465       .  S
O551       Eu557   2.332       .  S
O552        C653   1.296       .  A
O552       Eu557   2.465       .  S
O553        C566   1.272       .  A
O553       Eu556   2.332   1_554  S
O554        C563   1.279       .  A
O554       Eu646   2.393   1_554  S
O555        C564   1.279       .  A
O555       Eu560   2.396       .  S
Eu556       O636   2.465       .  S
Eu556       O623   2.339       .  S
Eu556       O648   2.322   1_565  S
Eu558       O562   2.385   1_565  S
Eu560       O633   2.479       .  S
Eu560       O640   2.393       .  S
Eu560       O561   2.320       .  S
Eu560       O572   2.356       .  S
Eu560       O660   2.357       .  S
O562       Eu642   2.322   1_545  S
C563        C590   1.427       .  S
C564        C595   1.428       .  S
C565        C597   1.384       .  S
C566        C584   1.471       .  S
C567        O638   1.296       .  A
C567        C587   1.384       .  S
C569        C578   1.456       .  S
C570        C582   1.456       .  S
H571        O572   0.965       .  S
H573        O574   0.965       .  S
O574       Eu646   2.357   1_554  S
C575        C576   1.237       .  T
C577        C578   1.219       .  T
C579        C580   1.223       .  T
C581        C582   1.219       .  T
C583        C584   1.237       .  T
C585        C586   1.224       .  T
C587        C588   1.177       .  T
C589        C590   1.207       .  T
C591        C592   1.202       .  T
C593        C594   1.208       .  T
C595        C596   1.207       .  T
C597        C598   1.177       .  T
C599        C600   1.202       .  T
C601        C602   1.208       .  T
C603        C682   1.463       .  S
C603        C684   1.416       .  S
C603        C685   1.455       .  S
C603        C688   1.465       .  S
C604        C674   1.415       .  S
C604        C675   1.463       .  S
C604        C678   1.455       .  S
C604        C679   1.465       .  S
C605        C667   1.486       .  S
C605        C669   1.522       .  S
C605        C671   1.493       .  S
C605        C687   1.468       .  S
C606        C661   1.522       .  S
C606        C663   1.486       .  S
C606        C666   1.493       .  S
C606        C680   1.467       .  S
O607        C618   1.297       .  A
O608       Eu642   2.519       .  S
O609        C620   1.295       .  A
O609       Eu615   2.490       .  S
O610        C621   1.296       .  A
O611        C621   1.299       .  A
O612       Eu644   2.517       .  S
O613       Eu615   2.384   1_554  S
O614        C618   1.277       .  A
O614       Eu615   2.382       .  S
Eu615       O625   2.349   1_556  S
Eu615       O617   2.335       .  S
O616       Eu645   2.289       .  S
O616       Eu642   2.333       .  S
C618        C686   1.421       .  S
C619        C677   1.421       .  S
C620        C665   1.463       .  S
C621        C672   1.463       .  S
H622        O623   0.961       .  S
O623       Eu644   2.400       .  S
H624        O625   0.961       .  S
O626       Eu642   2.520       .  S
O627        C650   1.297       .  A
O628        C651   1.274       .  A
O628       Eu644   2.358       .  S
O629        C652   1.329       .  A
O629       Eu645   2.658       .  S
O630        C653   1.274       .  A
O631       Eu644   2.659   1_545  S
O632        C655   1.294       .  A
O632       Eu646   2.481       .  S
O633        C656   1.293       .  A
O634        C655   1.298       .  A
O635        C656   1.298       .  A
O636        C651   1.296       .  A
O637       Eu643   2.332       .  S
O638       Eu643   2.465   1_554  S
O639        C652   1.272       .  A
O639       Eu642   2.332       .  S
O640        C649   1.279       .  A
O641        C650   1.279       .  A
O641       Eu646   2.396       .  S
Eu644       O648   2.385   1_565  S
Eu646       O647   2.320   1_556  S
Eu646       O658   2.356       .  S
C649        C676   1.427       .  S
C650        C681   1.428       .  S
C651        C683   1.384       .  S
C652        C670   1.471       .  S
C653        C673   1.384       .  S
C655        C664   1.456       .  S
C656        C668   1.456       .  S
H657        O658   0.965       .  S
H659        O660   0.965       .  S
C661        C662   1.237       .  T
C663        C664   1.219       .  T
C665        C666   1.223       .  T
C667        C668   1.219       .  T
C669        C670   1.237       .  T
C671        C672   1.224       .  T
C673        C674   1.177       .  T
C675        C676   1.207       .  T
C677        C678   1.202       .  T
C679        C680   1.208       .  T
C681        C682   1.207       .  T
C683        C684   1.177       .  T
C685        C686   1.202       .  T
C687        C688   1.208       .  T
