geometry optimzed in LAMMPS
_audit_creation_date              2020-11-30 
_audit_creation_method            'lammps2cif' 
_symmetry_space_group_name_H-M    'P1' 
_symmetry_Int_Tables_number       1 
_symmetry_cell_setting            triclinic 
loop_ 
_symmetry_equiv_pos_as_xyz 
  x,y,z 
_cell_length_a                    37.41495364 
_cell_length_b                    38.08177321199946 
_cell_length_c                    42.90639606681719 
_cell_angle_alpha                 90.39704893270338 
_cell_angle_beta                  90.17429311291086 
_cell_angle_gamma                 120.20630458020062 
loop_ 
_atom_site_label 
_atom_site_type_symbol 
_atom_site_fract_x 
_atom_site_fract_y 
_atom_site_fract_z 
_atom_site_charge 
C1          C  0.21772314  0.20463243  0.14750878     0.80800
N2          N  0.24840795  0.23707271  0.16261071    -0.77500
C3          C  0.27689597  0.27065932  0.14769886     0.83300
N4          N  0.27419802  0.27130173  0.11618687    -0.77400
C5          C  0.24366866  0.23908850  0.10018866     0.83400
N6          N  0.21531915  0.20561570  0.11595558    -0.79100
C7          C  0.22120550  0.21280959  0.41632008     0.80800
N8          N  0.21886384  0.21278364  0.44781626    -0.77500
C9          C  0.24822145  0.24472399  0.46477324     0.83300
N10         N  0.27923904  0.27735671  0.44980871    -0.77400
C11         C  0.28134629  0.27754507  0.41809433     0.83400
N12         N  0.25253985  0.24477188  0.40182703    -0.79100
C13         C  0.24374508  0.46814868  0.14597638     0.80800
N14         N  0.21314949  0.47054479  0.16070469    -0.77500
C15         C  0.18324202  0.47280343  0.14443099     0.83300
N16         N  0.18376185  0.47183286  0.11281493    -0.77400
C17         C  0.21387668  0.46841648  0.09783002     0.83400
N18         N  0.24423006  0.46707799  0.11439103    -0.79100
C19         C  0.24655381  0.46752200  0.41619080     0.80800
N20         N  0.24611659  0.46581170  0.44775171    -0.77500
C21         C  0.21754856  0.47075632  0.46375009     0.83300
N22         N  0.18969313  0.47734887  0.44825064    -0.77400
C23         C  0.19007970  0.47918074  0.41668964     0.83400
N24         N  0.21867080  0.47411318  0.40142316    -0.79100
C25         C  0.48299847  0.23673979  0.14770982     0.80800
N26         N  0.48521205  0.23780222  0.11613085    -0.77500
C27         C  0.48559963  0.20693588  0.10017005     0.83300
N28         N  0.48459366  0.17544459  0.11595858    -0.77400
C29         C  0.48257652  0.17442692  0.14767464     0.83400
N30         N  0.48103080  0.20489282  0.16301697    -0.79100
C31         C  0.48442360  0.23997168  0.41748241     0.80800
N32         N  0.48503353  0.20910656  0.40201634    -0.77500
C33         C  0.48419363  0.17773691  0.41759728     0.83300
N34         N  0.48350449  0.17795362  0.44927461    -0.77400
C35         C  0.48357689  0.20911595  0.46509354     0.83400
N36         N  0.48383983  0.24008730  0.44916520    -0.79100
O37         O  0.38739755  0.00579171  0.25158670    -0.87500
C38         C  0.10442825  0.09623971  0.32605621     1.12500
O39         O  0.44135984  0.47522607  0.28146370    -1.35400
O40         O  0.07140347  0.09630652  0.24389311    -0.89000
O41         O  0.35969233  0.44105828  0.24574346    -0.89700
O42         O  0.44125810  0.43126260  0.21441717    -0.78500
O43         O  0.47973300  0.05158178  0.25415340    -1.00600
C44         C  0.05973265  0.47521985  0.22497930     1.22500
O45         O  0.48410026  0.43223983  0.28182449    -1.35500
Mn46       Mn  0.48416088  0.47566811  0.31590225     1.82100
O47         O  0.02766961  0.47520768  0.21609782    -0.77600
O48         O  0.10785434  0.06509356  0.24853017    -0.87000
C49         C  0.05801925  0.47454405  0.34022431     1.13600
C50         C  0.10076942  0.09069058  0.23563274     1.08300
O51         O  0.44000675  0.43361974  0.34761998    -0.78500
O52         O  0.02549021  0.01707274  0.28287775    -1.32200
O53         O  0.40350243  0.39567638  0.31056368    -0.97700
C54         C  0.48462184  0.35394813  0.23723934     1.07100
Mn55       Mn  0.08397947  0.02164114  0.28318620     1.48600
O56         O  0.45074476  0.34819382  0.24869507    -0.86900
Mn57       Mn  0.38344178  0.42141255  0.28101335     1.49600
O58         O  0.39246272  0.00628111  0.32166855    -0.90800
C59         C  0.47904401  0.04677859  0.22615306     1.20300
C60         C  0.36512041  0.47404260  0.32751006     1.12300
Mn61       Mn  0.48387530  0.47467091  0.24732764     1.81000
O62         O  0.06255708  0.47420870  0.31178833    -0.96000
Mn63       Mn  0.43526582  0.02703624  0.28469121     1.49300
C64         C  0.36297886  0.47417088  0.23673190     1.08800
Mn65       Mn  0.03801176  0.42740131  0.28157712     1.49900
C66         C  0.48408217  0.35568593  0.32837104     1.11700
O67         O  0.40521404  0.39526319  0.25184942    -1.01800
O68         O  0.10815912  0.06621459  0.31784908    -0.91400
C69         C  0.41027623  0.39907202  0.22339264     1.23000
O70         O  0.06492590  0.47436976  0.25298623    -1.02200
O71         O  0.07703586  0.10240099  0.31391937    -0.89600
O72         O  0.01787340  0.38244346  0.31644166    -0.89200
O73         O  0.35860476  0.44127983  0.31495174    -0.89200
Mn74       Mn  0.02870473  0.07426110  0.28108013     1.47900
O75         O  0.02666549  0.47556478  0.34906491    -0.77700
C76         C  0.40800617  0.40178707  0.33859484     1.16100
O77         O  0.48037507  0.01602117  0.21673972    -0.76400
O78         O  0.48435056  0.01938531  0.34911770    -0.76000
Mn79       Mn  0.43031431  0.37426976  0.28274330     1.51100
O80         O  0.01895714  0.38322307  0.24646347    -0.88400
O81         O  0.48407584  0.05477059  0.31177077    -0.95900
O82         O  0.44973527  0.35081776  0.31875734    -0.90900
C83         C  0.48499631  0.05100488  0.33975360     1.13900
C84         C  0.48372720  0.08202743  0.36098058    -0.04700
C85         C  0.50666653  0.09467136  0.38923029    -0.01800
C86         C  0.50664513  0.12547068  0.40810573     0.03200
C87         C  0.48248415  0.14304376  0.39956007    -0.04700
C88         C  0.45807823  0.12899294  0.37217925    -0.03800
C89         C  0.46052909  0.10076953  0.35221328     0.03200
C90         C  0.03364330  0.07912221  0.39743176     0.37800
C91         C  0.42915396  0.14271903  0.36468673     0.37800
C92         C  0.43991513  0.09282990  0.32211379     0.36200
C93         C  0.03307101  0.14034438  0.43547459     0.36200
N94         N  0.42359534  0.08780612  0.29817240    -0.38600
N95         N  0.05428914  0.15226602  0.45729743    -0.38600
N96         N  0.40593872  0.15339515  0.35877164    -0.38000
N97         N  0.05597097  0.06760618  0.40395046    -0.38000
C98         C  0.48463524  0.27310474  0.39917676    -0.04700
C99         C  0.02179442  0.30401303  0.38709841    -0.01800
C100        C  0.02193242  0.33100881  0.36453217     0.03200
C101        C  0.48438503  0.32829414  0.35405647    -0.04700
C102        C  0.44677033  0.29756953  0.36778965    -0.01800
C103        C  0.44721874  0.27054825  0.39016247     0.03200
C104        C  0.06047134  0.30749221  0.39752733     0.37800
C105        C  0.40675292  0.29137018  0.35815905     0.37800
C106        C  0.40877065  0.23902772  0.40340434     0.36200
C107        C  0.06142506  0.35932927  0.35104159     0.36200
N108        N  0.37814178  0.21397212  0.41401142    -0.38600
N109        N  0.09368247  0.38049965  0.34062337    -0.38600
N110        N  0.37452317  0.28555366  0.35046687    -0.38000
N111        N  0.09128903  0.31040204  0.40590435    -0.38000
C112        C  0.48324356  0.14141118  0.16629717    -0.04700
C113        C  0.46178020  0.10018472  0.15635037    -0.01800
C114        C  0.46047031  0.06928944  0.17555986     0.03200
C115        C  0.48032651  0.07896803  0.20511983    -0.04700
C116        C  0.00074714  0.12025106  0.21523090    -0.01800
C117        C  0.00337952  0.15100192  0.19564747     0.03200
C118        C  0.43918277  0.08899446  0.12703259     0.37800
C119        C  0.01860728  0.13220087  0.24632321     0.37800
C120        C  0.02787118  0.19308126  0.20614812     0.36200
C121        C  0.43563633  0.02718050  0.16585989     0.36200
N122        N  0.04714726  0.22640375  0.21481981    -0.38600
N123        N  0.41498384  0.99368039  0.15807535    -0.38600
N124        N  0.03271251  0.14280088  0.27101904    -0.38000
N125        N  0.42109855  0.07997909  0.10364417    -0.38000
C126        C  0.48209013  0.26932320  0.16627574    -0.04700
C127        C  0.01845279  0.30630297  0.17190006    -0.01800
C128        C  0.02001777  0.33324336  0.19551845     0.03200
C129        C  0.48387497  0.32489437  0.21242454    -0.04700
C130        C  0.44701504  0.28715646  0.20612138    -0.01800
C131        C  0.44633236  0.25998972  0.18322251     0.03200
C132        C  0.05537277  0.31587188  0.15435137     0.37800
C133        C  0.41039140  0.27327256  0.22505846     0.37800
C134        C  0.40875790  0.22127288  0.17767527     0.36200
C135        C  0.06031033  0.36720641  0.20397571     0.36200
N136        N  0.37896906  0.19035033  0.17328464    -0.38600
N137        N  0.09286556  0.39330604  0.21109107    -0.38600
N138        N  0.38097423  0.26072676  0.24013769    -0.38000
N139        N  0.08481928  0.32373185  0.14033373    -0.38000
C140        C  0.48401432  0.20938618  0.49965484    -0.04700
C141        C  0.52199856  0.22875168  0.01603297    -0.01800
C142        C  0.52264081  0.22765631  0.04894138     0.03200
C143        C  0.48525562  0.20693842  0.06559259    -0.04700
C144        C  0.44722966  0.18742649  0.04918028    -0.01800
C145        C  0.44657324  0.18894401  0.01630047     0.03200
C146        C  0.56048701  0.24990178  0.49899018     0.37800
C147        C  0.40877513  0.16567705  0.06620449     0.37800
C148        C  0.40741792  0.16995872  0.99957509     0.36200
C149        C  0.56175972  0.24750369  0.06569130     0.36200
N150        N  0.37625232  0.15501926  0.48615383    -0.38600
N151        N  0.09267272  0.26312951  0.07912455    -0.38600
N152        N  0.37818274  0.14820822  0.07986429    -0.38000
N153        N  0.59106042  0.26669909  0.48522883    -0.38000
C154        C  0.27703409  0.46337276  0.39676551    -0.04700
C155        C  0.31973243  0.48505606  0.40400516    -0.01800
C156        C  0.34866557  0.48700531  0.38198307     0.03200
C157        C  0.33542264  0.47051759  0.35175796    -0.04700
C158        C  0.29261782  0.44761342  0.34500221    -0.01800
C159        C  0.26367522  0.44218856  0.36797392     0.03200
C160        C  0.33422335  0.50661610  0.43349308     0.37800
C161        C  0.27805756  0.43082123  0.31395571     0.37800
C162        C  0.21996246  0.41450412  0.36188178     0.36200
C163        C  0.39134592  0.50333840  0.39133733     0.36200
N164        N  0.18518878  0.39233790  0.35702182    -0.38600
N165        N  0.42337967  0.00891386  0.40152343    -0.38600
N166        N  0.26633404  0.41768076  0.28920403    -0.38000
N167        N  0.34717443  0.02105063  0.45948022    -0.38000
C168        C  0.09078047  0.47562236  0.36105077    -0.04700
C169        C  0.09084275  0.48043316  0.39378773    -0.01800
C170        C  0.12360991  0.48304895  0.41228500     0.03200
C171        C  0.15788418  0.48285531  0.39810871    -0.04700
C172        C  0.15935955  0.48243048  0.36503604    -0.01800
C173        C  0.12469201  0.47443756  0.34723817     0.03200
C174        C  0.05682274  0.48149922  0.40894857     0.37800
C175        C  0.19685568  0.49190085  0.34812713     0.37800
C176        C  0.12393223  0.46216037  0.31486178     0.36200
C177        C  0.12199159  0.48723364  0.44579327     0.36200
N178        N  0.12321146  0.45095794  0.28959374    -0.38600
N179        N  0.12042165  0.49075162  0.47249702    -0.38600
N180        N  0.22629472  0.49969131  0.33411947    -0.38000
N181        N  0.02990960  0.48230897  0.42150185    -0.38000
C182        C  0.33381401  0.47255339  0.21138894    -0.04700
C183        C  0.33941875  0.50863663  0.19692515    -0.01800
C184        C  0.31189869  0.50648182  0.17332282     0.03200
C185        C  0.27717809  0.46899038  0.16498464    -0.04700
C186        C  0.27092146  0.43318235  0.17900179    -0.01800
C187        C  0.29896009  0.43459105  0.20175813     0.03200
C188        C  0.37195223  0.04883535  0.21153570     0.37800
C189        C  0.23444863  0.39473242  0.17063132     0.37800
C190        C  0.28944053  0.39652144  0.21620263     0.36200
C191        C  0.32139209  0.04697121  0.16207183     0.36200
N192        N  0.28111193  0.36592767  0.22763832    -0.38600
N193        N  0.32759744  0.07710010  0.15091926    -0.38600
N194        N  0.20530930  0.36417373  0.16404327    -0.38000
N195        N  0.39657634  0.08046707  0.22102443    -0.38000
C196        C  0.15171298  0.47793070  0.16183417    -0.04700
C197        C  0.10927436  0.45594157  0.15361373    -0.01800
C198        C  0.07941596  0.45650760  0.17353693     0.03200
C199        C  0.09148916  0.47760973  0.20250863    -0.04700
C200        C  0.13431436  0.49989462  0.21027074    -0.01800
C201        C  0.16400123  0.50215805  0.18913506     0.03200
C202        C  0.09583960  0.43059835  0.12576463     0.37800
C203        C  0.14761358  0.02018808  0.24375931     0.37800
C204        C  0.20832846  0.02998439  0.20157483     0.36200
C205        C  0.03592235  0.43110415  0.16582208     0.36200
N206        N  0.24270729  0.05075217  0.20852703    -0.38600
N207        N  0.50142567  0.41017342  0.15973985    -0.38600
N208        N  0.16003679  0.03580237  0.26774917    -0.38000
N209        N  0.08498122  0.41027297  0.10358958    -0.38000
C210        C  0.21718652  0.46996866  0.49799984    -0.04700
C211        C  0.20121750  0.43250466  0.01378819    -0.01800
C212        C  0.19994153  0.43195994  0.04661478     0.03200
C213        C  0.21498513  0.46867671  0.06353937    -0.04700
C214        C  0.23600168  0.01438591  0.04944779    -0.01800
C215        C  0.23653826  0.01425999  0.01665409     0.03200
C216        C  0.18578674  0.39509116  0.49619034     0.37800
C217        C  0.25373499  0.05251111  0.06659765     0.37800
C218        C  0.25381375  0.05220530  0.99981314     0.36200
C219        C  0.18235494  0.39365803  0.06297612     0.36200
N220        N  0.26717707  0.08199354  0.48608679    -0.38600
N221        N  0.16814030  0.36309651  0.07603685    -0.38600
N222        N  0.26817812  0.08284726  0.08041123    -0.38000
N223        N  0.17329277  0.36511633  0.48208814    -0.38000
C224        C  0.31350070  0.31322350  0.40033651    -0.04700
C225        C  0.35543397  0.33491802  0.40999805    -0.01800
C226        C  0.38611456  0.36449673  0.39032817     0.03200
C227        C  0.37540368  0.37263374  0.36057859    -0.04700
C228        C  0.33306391  0.35112964  0.35133819    -0.01800
C229        C  0.30248873  0.32310625  0.37147124     0.03200
C230        C  0.36764386  0.32543663  0.43944258     0.37800
C231        C  0.31981049  0.35609860  0.32067506     0.37800
C232        C  0.25922858  0.30456674  0.36215213     0.36200
C233        C  0.42918601  0.38322070  0.39952603     0.36200
N234        N  0.22490391  0.28975136  0.35451803    -0.38600
N235        N  0.46351649  0.39735408  0.40685127    -0.38600
N236        N  0.30773568  0.35868114  0.29643064    -0.38000
N237        N  0.37747118  0.31799883  0.46294718    -0.38000
C238        C  0.13359632  0.12529492  0.35067670    -0.04700
C239        C  0.12722901  0.15611207  0.36411338    -0.01800
C240        C  0.15408492  0.18230638  0.38763432     0.03200
C241        C  0.18877194  0.17983898  0.39704808    -0.04700
C242        C  0.19614478  0.15035167  0.38367509    -0.01800
C243        C  0.16904976  0.12329865  0.36066347     0.03200
C244        C  0.09494447  0.16339957  0.35282879     0.37800
C245        C  0.23276506  0.14886404  0.39295498     0.37800
C246        C  0.18045758  0.09596891  0.34592227     0.36200
C247        C  0.14702383  0.21324858  0.40140033     0.36200
N248        N  0.19045540  0.07491956  0.33407790    -0.38600
N249        N  0.14140137  0.23788247  0.41237806    -0.38600
N250        N  0.26198433  0.14775518  0.40026311    -0.38000
N251        N  0.06987373  0.17012476  0.34369092    -0.38000
C252        C  0.37867330  0.36594661  0.20269290    -0.04700
C253        C  0.37827307  0.36936121  0.16991208    -0.01800
C254        C  0.34605795  0.33815404  0.15169850     0.03200
C255        C  0.31149235  0.30481318  0.16621864    -0.04700
C256        C  0.31141666  0.30302975  0.19933632    -0.01800
C257        C  0.34631362  0.33041265  0.21667866     0.03200
C258        C  0.41130293  0.40429418  0.15443799     0.37800
C259        C  0.27520610  0.27443372  0.21690127     0.37800
C260        C  0.34849734  0.32009062  0.24902196     0.36200
C261        C  0.34942996  0.34101674  0.11802817     0.36200
N262        N  0.35002852  0.31105200  0.27448526    -0.38600
N263        N  0.35265784  0.34351341  0.09119272    -0.38600
N264        N  0.24692922  0.25239819  0.23162072    -0.38000
N265        N  0.43742235  0.43183699  0.14157871    -0.38000
C266        C  0.18755618  0.16951787  0.16656815    -0.04700
C267        C  0.20155763  0.16005566  0.19428077    -0.01800
C268        C  0.17317179  0.13605522  0.21725959     0.03200
C269        C  0.13019411  0.11641142  0.21114086    -0.04700
C270        C  0.11640958  0.12034963  0.18141328    -0.01800
C271        C  0.14463178  0.14855632  0.15987455     0.03200
C272        C  0.24527846  0.17452981  0.19921685     0.37800
C273        C  0.07414450  0.09296666  0.17179052     0.37800
C274        C  0.12902001  0.15674145  0.13154067     0.36200
C275        C  0.18857150  0.13329984  0.24773370     0.36200
N276        N  0.11634668  0.16333808  0.10904855    -0.38600
N277        N  0.20109677  0.13164942  0.27204625    -0.38600
N278        N  0.04117146  0.07016631  0.16290755    -0.38000
N279        N  0.28003667  0.18585630  0.20322414    -0.38000
C280        C  0.24303973  0.23988999  0.06556373    -0.04700
C281        C  0.24122694  0.20747669  0.04806824    -0.01800
C282        C  0.24192190  0.20868778  0.01522152     0.03200
C283        C  0.24650114  0.24332391  0.49946390    -0.04700
C284        C  0.24888343  0.27597888  0.01702617    -0.01800
C285        C  0.24630747  0.27392098  0.04987240     0.03200
C286        C  0.24084494  0.17370794  0.06386954     0.37800
C287        C  0.25286977  0.31144973  0.50131256     0.37800
C288        C  0.24562563  0.30628958  0.06745743     0.36200
C289        C  0.23897675  0.17454314  0.99774597     0.36200
N290        N  0.24483723  0.33193579  0.08152775    -0.38600
N291        N  0.23606156  0.14710044  0.48384636    -0.38600
N292        N  0.25620392  0.33981479  0.48888849    -0.38000
N293        N  0.24084036  0.14704374  0.07663057    -0.38000
C294        C  0.21764808  0.20467846  0.64749360     0.80800
N295        N  0.24833652  0.23711150  0.66259892    -0.77500
C296        C  0.27683272  0.27069749  0.64769131     0.83300
N297        N  0.27413807  0.27134385  0.61617785    -0.77400
C298        C  0.24360072  0.23913658  0.60017652     0.83400
N299        N  0.21524371  0.20566754  0.61594194    -0.79100
C300        C  0.22119559  0.21279233  0.91633477     0.80800
N301        N  0.21886522  0.21274943  0.94783226    -0.77500
C302        C  0.24822305  0.24468757  0.96479065     0.83300
N303        N  0.27923092  0.27733023  0.94982889    -0.77400
C304        C  0.28132914  0.27753306  0.91811430     0.83400
N305        N  0.25252039  0.24476534  0.90184370    -0.79100
C306        C  0.24376569  0.46814782  0.64597077     0.80800
N307        N  0.21312138  0.47043535  0.66071874    -0.77500
C308        C  0.18320634  0.47270401  0.64446517     0.83300
N309        N  0.18376389  0.47185003  0.61284755    -0.77400
C310        C  0.21392969  0.46854295  0.59784062     0.83400
N311        N  0.24429093  0.46719456  0.61438354    -0.79100
C312        C  0.24645578  0.46737798  0.91617509     0.80800
N313        N  0.24599012  0.46559435  0.94773205    -0.77500
C314        C  0.21739643  0.47048411  0.96374138     0.83300
N315        N  0.18955360  0.47711210  0.94825753    -0.77400
C316        C  0.18997701  0.47902599  0.91669933     0.83400
N317        N  0.21858718  0.47400120  0.90142188    -0.79100
C318        C  0.48290719  0.23668334  0.64773439     0.80800
N319        N  0.48513169  0.23776500  0.61615512    -0.77500
C320        C  0.48552453  0.20690795  0.60018271     0.83300
N321        N  0.48451882  0.17540958  0.61596052    -0.77400
C322        C  0.48249440  0.17437478  0.64767619     0.83400
N323        N  0.48094174  0.20482993  0.66303021    -0.79100
C324        C  0.48429466  0.23989068  0.91748158     0.80800
N325        N  0.48491840  0.20903713  0.90200994    -0.77500
C326        C  0.48410946  0.17767997  0.91758628     0.83300
N327        N  0.48343777  0.17789788  0.94926387    -0.77400
C328        C  0.48349517  0.20904989  0.96508691     0.83400
N329        N  0.48373157  0.24001066  0.94916378    -0.79100
O330        O  0.38736394  0.00574172  0.75158600    -0.87500
C331        C  0.10442324  0.09626266  0.82604963     1.12500
O332        O  0.44135582  0.47522864  0.78148209    -1.35400
O333        O  0.07139447  0.09633520  0.74389407    -0.89000
O334        O  0.35969372  0.44108226  0.74576466    -0.89700
O335        O  0.44123892  0.43125642  0.71443807    -0.78500
O336        O  0.47970735  0.05155623  0.75414602    -1.00600
C337        C  0.05969444  0.47515981  0.72499936     1.22500
O338        O  0.48406888  0.43221761  0.78185142    -1.35500
Mn339      Mn  0.48414173  0.47565458  0.81592783     1.82100
O340        O  0.02765044  0.47517749  0.71610808    -0.77600
O341        O  0.10784220  0.06511543  0.74851201    -0.87000
C342        C  0.05797606  0.47450830  0.84024334     1.13600
C343        C  0.10075478  0.09071512  0.73562308     1.08300
O344        O  0.43997938  0.43361002  0.84764129    -0.78500
O345        O  0.02548993  0.01710326  0.78287226    -1.32200
O346        O  0.40347356  0.39567176  0.81058269    -0.97700
C347        C  0.48457290  0.35390998  0.73727378     1.07100
Mn348      Mn  0.08398059  0.02167168  0.78316946     1.48600
O349        O  0.45069613  0.34817370  0.74871616    -0.86900
Mn350      Mn  0.38343032  0.42142229  0.78103159     1.49600
O351        O  0.39244360  0.00625062  0.82166954    -0.90800
C352        C  0.47901422  0.04674635  0.72614597     1.20300
C353        C  0.36511609  0.47406683  0.82751068     1.12300
Mn354      Mn  0.48386706  0.47465833  0.74735260     1.81000
O355        O  0.06251436  0.47416976  0.81180731    -0.96000
Mn356      Mn  0.43524010  0.02700262  0.78468698     1.49300
C357        C  0.36300217  0.47419612  0.73673264     1.08800
Mn358      Mn  0.03794480  0.42736054  0.78159854     1.49900
C359        C  0.48401178  0.35565029  0.82840047     1.11700
O360        O  0.40518027  0.39525515  0.75186517    -1.01800
O361        O  0.10816274  0.06624715  0.81782897    -0.91400
C362        C  0.41024679  0.39906877  0.72340854     1.23000
O363        O  0.06487593  0.47431645  0.75300730    -1.02200
O364        O  0.07702443  0.10242125  0.81392196    -0.89600
O365        O  0.01778067  0.38240751  0.81646087    -0.89200
O366        O  0.35861204  0.44130098  0.81496793    -0.89200
Mn367      Mn  0.02869582  0.07428768  0.78108115     1.47900
O368        O  0.02663143  0.47554673  0.84908269    -0.77700
C369        C  0.40797910  0.40177879  0.83861453     1.16100
O370        O  0.48033786  0.01598349  0.71673680    -0.76400
O371        O  0.48434623  0.01937627  0.84911295    -0.76000
Mn372      Mn  0.43027168  0.37425510  0.78276153     1.51100
O373        O  0.01887056  0.38318655  0.74648490    -0.88400
O374        O  0.48405532  0.05474354  0.81176000    -0.95900
O375        O  0.44967367  0.35079089  0.81877534    -0.90900
C376        C  0.48498438  0.05098975  0.83974249     1.13900
C377        C  0.48371845  0.08201962  0.86096043    -0.04700
C378        C  0.50667741  0.09468926  0.88919995    -0.01800
C379        C  0.50663343  0.12547450  0.90807763     0.03200
C380        C  0.48243111  0.14300685  0.89954383    -0.04700
C381        C  0.45802064  0.12894246  0.87216604    -0.03800
C382        C  0.46049613  0.10073721  0.85219608     0.03200
C383        C  0.03364630  0.07917345  0.89743080     0.37800
C384        C  0.42906784  0.14263561  0.86467995     0.37800
C385        C  0.43988437  0.09279354  0.82209531     0.36200
C386        C  0.03304234  0.14037658  0.93547518     0.36200
N387        N  0.42356660  0.08776738  0.79815272    -0.38600
N388        N  0.05425717  0.15230303  0.95729959    -0.38600
N389        N  0.40583020  0.15328507  0.85876880    -0.38000
N390        N  0.05598388  0.06767083  0.90395291    -0.38000
C391        C  0.48450391  0.27302462  0.89918432    -0.04700
C392        C  0.02169144  0.30399257  0.88712340    -0.01800
C393        C  0.02182905  0.33097536  0.86454647     0.03200
C394        C  0.48429061  0.32824720  0.85408391    -0.04700
C395        C  0.44665879  0.29748415  0.86777041    -0.01800
C396        C  0.44708702  0.27043293  0.89012309     0.03200
C397        C  0.06036970  0.30748273  0.89756326     0.37800
C398        C  0.40664870  0.29128600  0.85811798     0.37800
C399        C  0.40862142  0.23884526  0.90329342     0.36200
C400        C  0.06132058  0.35927309  0.85104265     0.36200
N401        N  0.37797857  0.21373164  0.91384076    -0.38600
N402        N  0.09357735  0.38041923  0.84061390    -0.38600
N403        N  0.37442632  0.28547694  0.85041223    -0.38000
N404        N  0.09118873  0.31040283  0.90594873    -0.38000
C405        C  0.48318369  0.14136370  0.66628764    -0.04700
C406        C  0.46170349  0.10013446  0.65635068    -0.01800
C407        C  0.46041912  0.06924510  0.67555396     0.03200
C408        C  0.48029419  0.07893140  0.70510772    -0.04700
C409        C  0.00068593  0.12027229  0.71523710    -0.01800
C410        C  0.00327927  0.15101525  0.69566233     0.03200
C411        C  0.43905912  0.08893733  0.62705343     0.37800
C412        C  0.01859326  0.13223260  0.74631513     0.37800
C413        C  0.02774140  0.19309482  0.70616944     0.36200
C414        C  0.43559410  0.02713488  0.66585485     0.36200
N415        N  0.04698970  0.22641667  0.71484827    -0.38600
N416        N  0.41495241  0.99363340  0.65806942    -0.38600
N417        N  0.03273747  0.14284277  0.77099945    -0.38000
N418        N  0.42093453  0.07991762  0.60368270    -0.38000
C419        C  0.48200897  0.26926413  0.66631417    -0.04700
C420        C  0.01842752  0.30628471  0.67194696    -0.01800
C421        C  0.01997269  0.33321067  0.69556938     0.03200
C422        C  0.48381817  0.32484557  0.71246566    -0.04700
C423        C  0.44695768  0.28710253  0.70617822    -0.01800
C424        C  0.44626444  0.25992719  0.68328206     0.03200
C425        C  0.05538982  0.31580781  0.65447404     0.37800
C426        C  0.41034681  0.27322581  0.72513003     0.37800
C427        C  0.40869438  0.22119840  0.67776123     0.36200
C428        C  0.06026986  0.36712046  0.70409169     0.36200
N429        N  0.37890928  0.19026514  0.67339410    -0.38600
N430        N  0.09282302  0.39318267  0.71125467    -0.38600
N431        N  0.38094222  0.26069307  0.74022259    -0.38000
N432        N  0.08487186  0.32363142  0.64051868    -0.38000
C433        C  0.48397237  0.20933610  0.99964631    -0.04700
C434        C  0.52202014  0.22880763  0.51606878    -0.01800
C435        C  0.52262313  0.22768803  0.54897788     0.03200
C436        C  0.48521908  0.20694260  0.56560384    -0.04700
C437        C  0.44721393  0.18742077  0.54916434    -0.01800
C438        C  0.44659653  0.18895898  0.51628373     0.03200
C439        C  0.56044471  0.24982422  0.99892677     0.37800
C440        C  0.40874040  0.16563489  0.56616065     0.37800
C441        C  0.40746108  0.16995262  0.49953081     0.36200
C442        C  0.56172222  0.24753087  0.56575453     0.36200
N443        N  0.37619341  0.15504452  0.98622029    -0.38600
N444        N  0.09262994  0.26332267  0.57916328    -0.38600
N445        N  0.37813171  0.14813574  0.57979680    -0.38000
N446        N  0.59100004  0.26660509  0.98514204    -0.38000
C447        C  0.27696605  0.46329666  0.89674166    -0.04700
C448        C  0.31966000  0.48502290  0.90398992    -0.01800
C449        C  0.34861860  0.48701960  0.88197301     0.03200
C450        C  0.33540089  0.47053683  0.85174384    -0.04700
C451        C  0.29260042  0.44760792  0.84497342    -0.01800
C452        C  0.26363604  0.44214116  0.86793797     0.03200
C453        C  0.33411739  0.50658226  0.93348142     0.37800
C454        C  0.27806556  0.43082221  0.81392154     0.37800
C455        C  0.21993028  0.41444695  0.86182480     0.36200
C456        C  0.39129900  0.50338995  0.89134026     0.36200
N457        N  0.18516239  0.39227524  0.85694698    -0.38600
N458        N  0.42344077  0.00896738  0.90152950    -0.38600
N459        N  0.26636100  0.41768337  0.78916663    -0.38000
N460        N  0.34734276  0.02132779  0.95944735    -0.38000
C461        C  0.09072601  0.47556699  0.86107061    -0.04700
C462        C  0.09078721  0.48036955  0.89380879    -0.01800
C463        C  0.12355010  0.48297170  0.91230422     0.03200
C464        C  0.15781035  0.48275560  0.89812534    -0.04700
C465        C  0.15929532  0.48235737  0.86505279    -0.01800
C466        C  0.12463236  0.47437551  0.84725615     0.03200
C467        C  0.05676541  0.48142876  0.90897257     0.37800
C468        C  0.19679506  0.49184250  0.84814306     0.37800
C469        C  0.12386376  0.46208465  0.81488269     0.36200
C470        C  0.12195603  0.48718711  0.94581088     0.36200
N471        N  0.12313235  0.45086539  0.78961857    -0.38600
N472        N  0.12040988  0.49073581  0.97251330    -0.38600
N473        N  0.22623756  0.49964764  0.83413481    -0.38000
N474        N  0.02984734  0.48222689  0.92152785    -0.38000
C475        C  0.33384580  0.47257268  0.71137933    -0.04700
C476        C  0.33944988  0.50865220  0.69690928    -0.01800
C477        C  0.31192781  0.50649158  0.67330572     0.03200
C478        C  0.27721217  0.46899646  0.66496632    -0.04700
C479        C  0.27096371  0.43319122  0.67898294    -0.01800
C480        C  0.29899881  0.43460654  0.70174495     0.03200
C481        C  0.37189191  0.04874395  0.71150963     0.37800
C482        C  0.23450259  0.39473556  0.67060456     0.37800
C483        C  0.28947934  0.39653840  0.71619202     0.36200
C484        C  0.32135111  0.04682476  0.66200904     0.36200
N485        N  0.28114861  0.36594620  0.72763142    -0.38600
N486        N  0.32757438  0.07693719  0.65081452    -0.38600
N487        N  0.20537356  0.36417172  0.66401020    -0.38000
N488        N  0.39651589  0.08038541  0.72098234    -0.38000
C489        C  0.15166347  0.47777851  0.66189215    -0.04700
C490        C  0.10922300  0.45576433  0.65368145    -0.01800
C491        C  0.07936658  0.45636315  0.67358794     0.03200
C492        C  0.09144339  0.47750282  0.70254396    -0.04700
C493        C  0.13426663  0.49977125  0.71031388    -0.01800
C494        C  0.16395282  0.50201190  0.68918946     0.03200
C495        C  0.09578857  0.43035806  0.62586581     0.37800
C496        C  0.14760790  0.02019216  0.74373313     0.37800
C497        C  0.20831257  0.02991157  0.70156491     0.36200
C498        C  0.03587156  0.43097279  0.66587084     0.36200
N499        N  0.24269411  0.05064743  0.70852345    -0.38600
N500        N  0.50142859  0.41012225  0.65977842    -0.38600
N501        N  0.16002934  0.03580550  0.76772352    -0.38000
N502        N  0.08493103  0.40997548  0.60372104    -0.38000
C503        C  0.21707266  0.46971659  0.99798979    -0.04700
C504        C  0.20145033  0.43275574  0.51377920    -0.01800
C505        C  0.20015381  0.43217458  0.54660386     0.03200
C506        C  0.21504042  0.46885487  0.56354947    -0.04700
C507        C  0.23582548  0.01417263  0.54940729    -0.01800
C508        C  0.23633077  0.01399023  0.51661364     0.03200
C509        C  0.18544748  0.39481418  0.99621789     0.37800
C510        C  0.25348698  0.05232504  0.56651393     0.37800
C511        C  0.25347773  0.05189821  0.49973262     0.36200
C512        C  0.18269002  0.39386442  0.56294279     0.36200
N513        N  0.26761741  0.08233433  0.98620308    -0.38600
N514        N  0.16857101  0.36329699  0.57598725    -0.38600
N515        N  0.26788209  0.08269112  0.58028448    -0.38000
N516        N  0.17288016  0.36482008  0.98213003    -0.38000
C517        C  0.31348068  0.31321781  0.90036045    -0.04700
C518        C  0.35541486  0.33491180  0.91002017    -0.01800
C519        C  0.38609589  0.36447878  0.89034404     0.03200
C520        C  0.37538051  0.37262233  0.86059845    -0.04700
C521        C  0.33303899  0.35112847  0.85136430    -0.01800
C522        C  0.30246584  0.32310535  0.87149849     0.03200
C523        C  0.36762261  0.32545534  0.93947628     0.37800
C524        C  0.31978239  0.35610814  0.82070570     0.37800
C525        C  0.25920442  0.30457717  0.86218684     0.36200
C526        C  0.42916969  0.38318425  0.89953147     0.36200
N527        N  0.22487876  0.28977313  0.85455812    -0.38600
N528        N  0.46350169  0.39730130  0.90684766    -0.38600
N529        N  0.30770656  0.35869903  0.79646417    -0.38000
N530        N  0.37744631  0.31804255  0.96299288    -0.38000
C531        C  0.13358783  0.12530826  0.85067635    -0.04700
C532        C  0.12724448  0.15614890  0.86409653    -0.01800
C533        C  0.15410308  0.18234104  0.88761711     0.03200
C534        C  0.18875687  0.17983214  0.89705969    -0.04700
C535        C  0.19610179  0.15031613  0.88370790    -0.01800
C536        C  0.16901506  0.12327898  0.86068557     0.03200
C537        C  0.09498222  0.16346051  0.85279630     0.37800
C538        C  0.23269167  0.14878860  0.89301455     0.37800
C539        C  0.18041120  0.09593584  0.84595321     0.36200
C540        C  0.14708251  0.21332524  0.90135180     0.36200
N541        N  0.19040011  0.07487817  0.83411166    -0.38600
N542        N  0.14149560  0.23799580  0.91230224    -0.38600
N543        N  0.26188655  0.14764678  0.90034280    -0.38000
N544        N  0.06992713  0.17020153  0.84364741    -0.38000
C545        C  0.37863439  0.36595175  0.70270321    -0.04700
C546        C  0.37823617  0.36937423  0.66992277    -0.01800
C547        C  0.34600886  0.33818314  0.65170456     0.03200
C548        C  0.31143869  0.30483954  0.66621833    -0.04700
C549        C  0.31136848  0.30303907  0.69933622    -0.01800
C550        C  0.34626656  0.33041699  0.71668295     0.03200
C551        C  0.41128749  0.40429496  0.65445340     0.37800
C552        C  0.27516334  0.27442522  0.71689826     0.37800
C553        C  0.34844270  0.32008920  0.74902595     0.36200
C554        C  0.34937392  0.34106317  0.61803471     0.36200
N555        N  0.34996531  0.31104716  0.77448967    -0.38600
N556        N  0.35259595  0.34357305  0.59119943    -0.38600
N557        N  0.24689097  0.25237328  0.73161469    -0.38000
N558        N  0.43742760  0.43182697  0.64159906    -0.38000
C559        C  0.18749323  0.16955267  0.66654538    -0.04700
C560        C  0.20151578  0.16006019  0.69423185    -0.01800
C561        C  0.17314875  0.13604733  0.71721579     0.03200
C562        C  0.13016537  0.11642964  0.71112331    -0.04700
C563        C  0.11635787  0.12038930  0.68141140    -0.01800
C564        C  0.14456491  0.14860486  0.65987127     0.03200
C565        C  0.24523906  0.17451723  0.69913338     0.37800
C566        C  0.07408563  0.09301310  0.67180132     0.37800
C567        C  0.12893517  0.15681144  0.63155658     0.36200
C568        C  0.18857662  0.13325014  0.74766687     0.36200
N569        N  0.11624589  0.16342307  0.60907998    -0.38600
N570        N  0.20112704  0.13156509  0.77196003    -0.38600
N571        N  0.04110701  0.07021666  0.66292644    -0.38000
N572        N  0.27999958  0.18582978  0.70311062    -0.38000
C573        C  0.24297665  0.23993157  0.56554942    -0.04700
C574        C  0.24109516  0.20748255  0.54805775    -0.01800
C575        C  0.24183251  0.20870452  0.51521114     0.03200
C576        C  0.24651467  0.24328037  0.99947977    -0.04700
C577        C  0.24891515  0.27604609  0.51700592    -0.01800
C578        C  0.24631321  0.27398746  0.54985161     0.03200
C579        C  0.24057223  0.17364644  0.56386146     0.37800
C580        C  0.25276144  0.31135342  0.00133613     0.37800
C581        C  0.24565604  0.30637430  0.56742834     0.36200
C582        C  0.23886162  0.17454359  0.49774221     0.36200
N583        N  0.24488196  0.33203209  0.58149263    -0.38600
N584        N  0.23619133  0.14711019  0.98384430    -0.38600
N585        N  0.25603255  0.33969397  0.98891342    -0.38000
N586        N  0.24044229  0.14691913  0.57662007    -0.38000
C587        C  0.21918785  0.70449055  0.14766495     0.80800
N588        N  0.24822456  0.73784796  0.16291954    -0.77500
C589        C  0.27632492  0.77165017  0.14804212     0.83300
N590        N  0.27512313  0.77138841  0.11645768    -0.77400
C591        C  0.24594683  0.73830731  0.10035114     0.83400
N592        N  0.21784249  0.70478734  0.11611016    -0.79100
C593        C  0.22142894  0.71015433  0.41672611     0.80800
N594        N  0.22005341  0.70947701  0.44826181    -0.77500
C595        C  0.24979158  0.74122005  0.46510467     0.83300
N596        N  0.28015361  0.77409022  0.45008419    -0.77400
C597        C  0.28132532  0.77507103  0.41844943     0.83400
N598        N  0.25212159  0.74260131  0.40211280    -0.79100
C599        C  0.24651849  0.97328453  0.14765366     0.80800
N600        N  0.21570236  0.97491580  0.16270442    -0.77500
C601        C  0.18642768  0.97862929  0.14679212     0.83300
N602        N  0.18782757  0.97989184  0.11517641    -0.77400
C603        C  0.21828749  0.97740433  0.09989426     0.83400
N604        N  0.24788320  0.97443347  0.11612419    -0.79100
C605        C  0.24709148  0.96978216  0.41827605     0.80800
N606        N  0.24803523  0.97022645  0.44986276    -0.77500
C607        C  0.22052582  0.97673031  0.46591964     0.83300
N608        N  0.19216279  0.98261766  0.45045997    -0.77400
C609        C  0.19094622  0.98204866  0.41886869     0.83400
N610        N  0.21860110  0.97555027  0.40352505    -0.79100
C611        C  0.48431830  0.73819083  0.14780764     0.80800
N612        N  0.48452553  0.73878329  0.11615894    -0.77500
C613        C  0.48355688  0.70753380  0.09975162     0.83300
N614        N  0.48329627  0.67618878  0.11513078    -0.77400
C615        C  0.48337556  0.67558490  0.14683899     0.83400
N616        N  0.48322059  0.70646735  0.16280316    -0.79100
C617        C  0.48860313  0.74106293  0.41726731     0.80800
N618        N  0.48953216  0.71059822  0.40155555    -0.77500
C619        C  0.48800974  0.67874301  0.41677280     0.83300
N620        N  0.48636847  0.67804544  0.44844947    -0.77400
C621        C  0.48640008  0.70903081  0.46456052     0.83400
N622        N  0.48721401  0.74043507  0.44889956    -0.79100
O623        O  0.38965599  0.50808382  0.24878135    -0.87500
C624        C  0.10549151  0.59503552  0.32561569     1.12500
O625        O  0.43984678  0.97384104  0.28313424    -1.35400
O626        O  0.07441817  0.59616834  0.24310603    -0.89000
O627        O  0.35799410  0.93899171  0.24689344    -0.89700
O628        O  0.44006296  0.93047513  0.21604217    -0.78500
O629        O  0.48267178  0.55365207  0.25233408    -1.00600
C630        C  0.05905369  0.97583122  0.22630200     1.22500
O631        O  0.48347711  0.93191886  0.28324853    -1.35500
Mn632      Mn  0.48318575  0.97500893  0.31737997     1.82100
O633        O  0.02673177  0.97516178  0.21718235    -0.77600
O634        O  0.11030425  0.56445832  0.24812788    -0.87000
C635        C  0.05821065  0.97515981  0.34154307     1.13600
C636        C  0.10361178  0.59019621  0.23516161     1.08300
O637        O  0.43921095  0.93263318  0.34899843    -0.78500
O638        O  0.02686735  0.51732433  0.28148180    -1.32200
O639        O  0.40263659  0.89449679  0.31198113    -0.97700
C640        C  0.48436737  0.85452649  0.23784614     1.07100
Mn641      Mn  0.08494857  0.52081231  0.28223646     1.48600
O642        O  0.45044785  0.84768577  0.24993514    -0.86900
Mn643      Mn  0.38201225  0.91969370  0.28240653     1.49600
O644        O  0.39405342  0.50873346  0.31915690    -0.90800
C645        C  0.48231561  0.54862378  0.22438308     1.20300
C646        C  0.36321437  0.97152019  0.32945562     1.12300
Mn647      Mn  0.48258332  0.97397984  0.24877913     1.81000
O648        O  0.06333149  0.97502189  0.31309103    -0.96000
Mn649      Mn  0.43746230  0.52897848  0.28246770     1.49300
C650        C  0.36131166  0.97242385  0.23867694     1.08800
Mn651      Mn  0.03790059  0.92803810  0.28259535     1.49900
C652        C  0.48481355  0.85577513  0.32920086     1.11700
O653        O  0.40422972  0.89393007  0.25334042    -1.01800
O654        O  0.10898816  0.56492198  0.31727116    -0.91400
C655        C  0.40902878  0.89827171  0.22490444     1.23000
O656        O  0.06382140  0.97506462  0.25431065    -1.02200
O657        O  0.07877094  0.60188980  0.31314654    -0.89600
O658        O  0.01838865  0.88291406  0.31708391    -0.89200
O659        O  0.35647034  0.93905457  0.31626385    -0.89200
Mn660      Mn  0.03110213  0.57492749  0.27976753     1.47900
O661        O  0.02636328  0.97547942  0.35018747    -0.77700
C662        C  0.40715210  0.90080244  0.33997677     1.16100
O663        O  0.48273555  0.51726609  0.21525161    -0.76400
O664        O  0.48570370  0.52023748  0.34740762    -0.76000
Mn665      Mn  0.42996214  0.87353091  0.28415697     1.51100
O666        O  0.01856595  0.88427369  0.24699447    -0.88400
O667        O  0.48608875  0.55591470  0.30997538    -0.95900
O668        O  0.45014332  0.85053248  0.32001284    -0.90900
C669        C  0.48686964  0.55205123  0.33796981     1.13900
C670        C  0.48657594  0.58348578  0.35917741    -0.04700
C671        C  0.50925578  0.59535030  0.38756705    -0.01800
C672        C  0.50967785  0.62614932  0.40666809     0.03200
C673        C  0.48615364  0.64440606  0.39823033    -0.04700
C674        C  0.46253062  0.63162834  0.37038565    -0.03800
C675        C  0.46447261  0.60326381  0.35030282     0.03200
C676        C  0.03556160  0.57894602  0.39572326     0.37800
C677        C  0.43525414  0.64712445  0.36227873     0.37800
C678        C  0.44445700  0.59614004  0.31999217     0.36200
C679        C  0.03651815  0.64077710  0.43388741     0.36200
N680        N  0.42875080  0.59173422  0.29585674    -0.38600
N681        N  0.05808536  0.65256814  0.45552645    -0.38600
N682        N  0.41350801  0.65934768  0.35570849    -0.38000
N683        N  0.05737008  0.56682099  0.40226180    -0.38000
C684        C  0.48805498  0.77387535  0.39918813    -0.04700
C685        C  0.02488780  0.80444428  0.38605226    -0.01800
C686        C  0.02403627  0.83080510  0.36339440     0.03200
C687        C  0.48601296  0.82844865  0.35447576    -0.04700
C688        C  0.44893157  0.79780053  0.36882058    -0.01800
C689        C  0.45018436  0.77066838  0.39064482     0.03200
C690        C  0.06392252  0.80775519  0.39523118     0.37800
C691        C  0.40861384  0.79171269  0.36027226     0.37800
C692        C  0.41203509  0.73782907  0.40324528     0.36200
C693        C  0.06257130  0.85761432  0.34794204     0.36200
N694        N  0.38162675  0.71148876  0.41310119    -0.38600
N695        N  0.09380940  0.87760743  0.33568010    -0.38600
N696        N  0.37613628  0.78596254  0.35343764    -0.38000
N697        N  0.09498055  0.81041095  0.40258922    -0.38000
C698        C  0.48555983  0.64280871  0.16459266    -0.04700
C699        C  0.46263809  0.60133478  0.15540627    -0.01800
C700        C  0.46266596  0.57073695  0.17418919     0.03200
C701        C  0.48430784  0.58086016  0.20300808    -0.04700
C702        C  0.00681188  0.62254697  0.21214101    -0.01800
C703        C  0.00924136  0.65304080  0.19233223     0.03200
C704        C  0.43715107  0.58955116  0.12749646     0.37800
C705        C  0.02684403  0.63525482  0.24245741     0.37800
C706        C  0.03731384  0.69545913  0.20056914     0.36200
C707        C  0.43703982  0.52846029  0.16512830     0.36200
N708        N  0.05973491  0.72914473  0.20713922    -0.38600
N709        N  0.41585213  0.49481785  0.15791562    -0.38600
N710        N  0.04285003  0.64673049  0.26650699    -0.38000
N711        N  0.41662150  0.57971369  0.10528535    -0.38000
C712        C  0.48391477  0.77093261  0.16659357    -0.04700
C713        C  0.02101305  0.80627461  0.17472786    -0.01800
C714        C  0.02148630  0.83356999  0.19759799     0.03200
C715        C  0.48411487  0.82632734  0.21234237    -0.04700
C716        C  0.44664245  0.79066689  0.20296490    -0.01800
C717        C  0.44677123  0.76373672  0.18017133     0.03200
C718        C  0.05931193  0.81396671  0.16028387     0.37800
C719        C  0.40760869  0.77872720  0.21794566     0.37800
C720        C  0.40836346  0.72747538  0.17113251     0.36200
C721        C  0.06144141  0.86744449  0.20692781     0.36200
N722        N  0.37781405  0.69861546  0.16390983    -0.38600
N723        N  0.09362491  0.89383917  0.21447284    -0.38600
N724        N  0.37583052  0.76709896  0.22958065    -0.38000
N725        N  0.09002074  0.82046499  0.14889277    -0.38000
C726        C  0.48552341  0.70858077  0.49912904    -0.04700
C727        C  0.52107694  0.73601134  0.01639986    -0.01800
C728        C  0.52027136  0.73582509  0.04930121     0.03200
C729        C  0.48397283  0.70816038  0.06516211    -0.04700
C730        C  0.44835752  0.68080978  0.04789013    -0.01800
C731        C  0.44924627  0.68082482  0.01495939     0.03200
C732        C  0.55889480  0.76350789  0.50024159     0.37800
C733        C  0.41039740  0.65353386  0.06398037     0.37800
C734        C  0.41263674  0.65264900  0.99729577     0.36200
C735        C  0.55716248  0.76343296  0.06689043     0.36200
N736        N  0.38348123  0.63016021  0.48315865    -0.38600
N737        N  0.08663269  0.78491066  0.08092263    -0.38600
N738        N  0.37995770  0.63195466  0.07672388    -0.38000
N739        N  0.58911754  0.78522069  0.48731830    -0.38000
C740        C  0.27660077  0.96391369  0.39882124    -0.04700
C741        C  0.31929131  0.98348746  0.40621233    -0.01800
C742        C  0.34752112  0.98399241  0.38416423     0.03200
C743        C  0.33376962  0.96785115  0.35394905    -0.04700
C744        C  0.29090722  0.94602695  0.34731313    -0.01800
C745        C  0.26247643  0.94252493  0.37012449     0.03200
C746        C  0.33465826  0.00431108  0.43586291     0.37800
C747        C  0.27579230  0.92824610  0.31659780     0.37800
C748        C  0.21848102  0.91658024  0.36391887     0.36200
C749        C  0.39001625  0.99855611  0.39334332     0.36200
N750        N  0.18346512  0.89591101  0.35899562    -0.38600
N751        N  0.42480995  0.51510451  0.39998137    -0.38600
N752        N  0.26353805  0.91412769  0.29215700    -0.38000
N753        N  0.34588525  0.52398457  0.45696381    -0.38000
C754        C  0.09093013  0.97659961  0.36277830    -0.04700
C755        C  0.09023293  0.98056014  0.39558870    -0.01800
C756        C  0.12256145  0.98257344  0.41437692     0.03200
C757        C  0.15813778  0.98482520  0.40038114    -0.04700
C758        C  0.16038881  0.98570005  0.36737185    -0.01800
C759        C  0.12551001  0.97633820  0.34933459     0.03200
C760        C  0.05605529  0.98157042  0.41050617     0.37800
C761        C  0.19876702  0.99754914  0.35089385     0.37800
C762        C  0.12523864  0.96353068  0.31723765     0.36200
C763        C  0.11859857  0.98249846  0.44798505     0.36200
N764        N  0.12486246  0.95193863  0.29215477    -0.38600
N765        N  0.11502182  0.98229715  0.47479322    -0.38600
N766        N  0.22898467  0.00718546  0.33735953    -0.38000
N767        N  0.02919927  0.98262244  0.42292909    -0.38000
C768        C  0.33336718  0.97240925  0.21310563    -0.04700
C769        C  0.34005643  0.00953240  0.19980409    -0.01800
C770        C  0.31376600  0.00913194  0.17598215     0.03200
C771        C  0.27917247  0.97237692  0.16630857    -0.04700
C772        C  0.27206040  0.93553064  0.17890969    -0.01800
C773        C  0.29881597  0.93524813  0.20203600     0.03200
C774        C  0.37171678  0.54861258  0.20709166     0.37800
C775        C  0.23600790  0.89779875  0.16869471     0.37800
C776        C  0.28797864  0.89643863  0.21570720     0.36200
C777        C  0.31845306  0.54325142  0.15817084     0.36200
N778        N  0.27845104  0.86530345  0.22667932    -0.38600
N779        N  0.32368327  0.57246379  0.14597010    -0.38600
N780        N  0.20721525  0.86784617  0.16054364    -0.38000
N781        N  0.39675786  0.58078877  0.21529931    -0.38000
C782        C  0.15404035  0.98194047  0.16457375    -0.04700
C783        C  0.11199232  0.96054460  0.15519839    -0.01800
C784        C  0.08109824  0.95932149  0.17493063     0.03200
C785        C  0.09178803  0.97916599  0.20439301    -0.04700
C786        C  0.13426048  0.00106748  0.21332925    -0.01800
C787        C  0.16498738  0.00384906  0.19302140     0.03200
C788        C  0.10000153  0.93790078  0.12602012     0.37800
C789        C  0.14909161  0.51937933  0.24042779     0.37800
C790        C  0.20765318  0.53011941  0.19557713     0.36200
C791        C  0.03800192  0.93371538  0.16621810     0.36200
N792        N  0.24230381  0.55248225  0.20070138    -0.38600
N793        N  0.50369121  0.91240197  0.15938617    -0.38600
N794        N  0.16270411  0.53509762  0.26421250    -0.38000
N795        N  0.09039478  0.91991703  0.10270021    -0.38000
C796        C  0.22091870  0.97693487  0.50015391    -0.04700
C797        C  0.20485127  0.94028236  0.01638081    -0.01800
C798        C  0.20325513  0.94033487  0.04914621     0.03200
C799        C  0.21900363  0.97740185  0.06564744    -0.04700
C800        C  0.23095749  0.50584579  0.04768625    -0.01800
C801        C  0.23180061  0.50634598  0.01491386     0.03200
C802        C  0.18974749  0.90202910  0.49940994     0.37800
C803        C  0.24701083  0.54360030  0.06517677     0.37800
C804        C  0.24841273  0.54457189  0.99852248     0.36200
C805        C  0.18482232  0.90230232  0.06594602     0.36200
N806        N  0.26130781  0.57513916  0.48534398    -0.38600
N807        N  0.16997416  0.87207793  0.07949032    -0.38600
N808        N  0.25993091  0.57364842  0.07922688    -0.38000
N809        N  0.17792444  0.87177941  0.48581870    -0.38000
C810        C  0.31296769  0.81142785  0.40113475    -0.04700
C811        C  0.35464022  0.83425027  0.41133201    -0.01800
C812        C  0.38516667  0.86416150  0.39184597     0.03200
C813        C  0.37450646  0.87178301  0.36191902    -0.04700
C814        C  0.33217655  0.84996354  0.35255906    -0.01800
C815        C  0.30174729  0.82151682  0.37251103     0.03200
C816        C  0.36678606  0.82620062  0.44138186     0.37800
C817        C  0.31862121  0.85511455  0.32208587     0.37800
C818        C  0.25839370  0.80320224  0.36349957     0.36200
C819        C  0.42811425  0.88388235  0.40154505     0.36200
N820        N  0.22399847  0.78875053  0.35616434    -0.38600
N821        N  0.46233040  0.89878171  0.40936299    -0.38600
N822        N  0.30593323  0.85772064  0.29810408    -0.38000
N823        N  0.37657045  0.82014276  0.46544598    -0.38000
C824        C  0.13406573  0.62337510  0.35081665    -0.04700
C825        C  0.12822870  0.65476468  0.36379426    -0.01800
C826        C  0.15485641  0.68070356  0.38749833     0.03200
C827        C  0.18868570  0.67725717  0.39766772    -0.04700
C828        C  0.19499657  0.64661318  0.38532985    -0.01800
C829        C  0.16834557  0.62006040  0.36190850     0.03200
C830        C  0.09673134  0.66284583  0.35192798     0.37800
C831        C  0.23010647  0.64341103  0.39613617     0.37800
C832        C  0.17927156  0.59205672  0.34777784     0.36200
C833        C  0.14823653  0.71210230  0.40092098     0.36200
N834        N  0.18897040  0.57057989  0.33629413    -0.38600
N835        N  0.14287386  0.73702276  0.41165730    -0.38600
N836        N  0.25807376  0.64091073  0.40477729    -0.38000
N837        N  0.07223590  0.67014226  0.34239074    -0.38000
C838        C  0.37664866  0.86623082  0.20401004    -0.04700
C839        C  0.37677365  0.87033426  0.17127576    -0.01800
C840        C  0.34416819  0.84019724  0.15270616     0.03200
C841        C  0.30947460  0.80658638  0.16681298    -0.04700
C842        C  0.30826089  0.80481099  0.19989196    -0.01800
C843        C  0.34297451  0.83140569  0.21770688     0.03200
C844        C  0.41097578  0.90467619  0.15615143     0.37800
C845        C  0.27098043  0.77697427  0.21681478     0.37800
C846        C  0.34399185  0.82033188  0.25000869     0.36200
C847        C  0.34699482  0.84484404  0.11914016     0.36200
N848        N  0.34491926  0.81027927  0.27525810    -0.38600
N849        N  0.35000875  0.84920546  0.09240810    -0.38600
N850        N  0.24172479  0.75542113  0.23082487    -0.38000
N851        N  0.43804604  0.93171161  0.14357288    -0.38000
C852        C  0.18986170  0.66893105  0.16648981    -0.04700
C853        C  0.20421274  0.66072607  0.19456908    -0.01800
C854        C  0.17593025  0.63606514  0.21730187     0.03200
C855        C  0.13304314  0.61549247  0.21076765    -0.04700
C856        C  0.11920655  0.61810176  0.18073358    -0.01800
C857        C  0.14718726  0.64619058  0.15910578     0.03200
C858        C  0.24820821  0.67732868  0.20012310     0.37800
C859        C  0.07707184  0.58982155  0.17118498     0.37800
C860        C  0.13156308  0.65233663  0.12994055     0.36200
C861        C  0.19122316  0.63339998  0.24785552     0.36200
N862        N  0.11883701  0.65715002  0.10672513    -0.38600
N863        N  0.20366086  0.63167143  0.27219240    -0.38600
N864        N  0.04411216  0.56639736  0.16263976    -0.38000
N865        N  0.28321170  0.69040494  0.20451143    -0.38000
C866        C  0.24584294  0.73852172  0.06574844    -0.04700
C867        C  0.24086038  0.70440575  0.04866703    -0.01800
C868        C  0.24179368  0.70509234  0.01583454     0.03200
C869        C  0.24852251  0.74035938  0.49970806    -0.04700
C870        C  0.25386536  0.77441734  0.01682019    -0.01800
C871        C  0.25182456  0.77333828  0.04960411     0.03200
C872        C  0.23620355  0.66891132  0.06475990     0.37800
C873        C  0.26036024  0.81076085  0.50077293     0.37800
C874        C  0.25423956  0.80764243  0.06653094     0.36200
C875        C  0.23690268  0.66985484  0.99877966     0.36200
N876        N  0.25615346  0.83503173  0.07994317    -0.38600
N877        N  0.23199155  0.64149438  0.48521127    -0.38600
N878        N  0.26570166  0.83968750  0.48804699    -0.38000
N879        N  0.23241676  0.64064633  0.07762886    -0.38000
C880        C  0.21912018  0.70450930  0.64765916     0.80800
N881        N  0.24820645  0.73783913  0.66290773    -0.77500
C882        C  0.27629758  0.77164318  0.64803050     0.83300
N883        N  0.27503882  0.77141290  0.61644740    -0.77400
C884        C  0.24581167  0.73835917  0.60034265     0.83400
N885        N  0.21771323  0.70484007  0.61610754    -0.79100
C886        C  0.22157595  0.71002980  0.91675602     0.80800
N887        N  0.22021538  0.70933869  0.94829294    -0.77500
C888        C  0.24993620  0.74109849  0.96513224     0.83300
N889        N  0.28026387  0.77399415  0.95011364    -0.77400
C890        C  0.28142645  0.77498370  0.91847948     0.83400
N891        N  0.25223911  0.74250206  0.90214272    -0.79100
C892        C  0.24644121  0.97314350  0.64766393     0.80800
N893        N  0.21563874  0.97481171  0.66270448    -0.77500
C894        C  0.18638601  0.97855098  0.64678222     0.83300
N895        N  0.18779519  0.97980196  0.61516536    -0.77400
C896        C  0.21824251  0.97727750  0.59989377     0.83400
N897        N  0.24781414  0.97428029  0.61613518    -0.79100
C898        C  0.24722327  0.97003239  0.91829681     0.80800
N899        N  0.24818117  0.97052961  0.94988314    -0.77500
C900        C  0.22068124  0.97706308  0.96592413     0.83300
N901        N  0.19229993  0.98290749  0.95044947    -0.77400
C902        C  0.19106723  0.98228360  0.91885749     0.83400
N903        N  0.21872255  0.97576990  0.90352991    -0.79100
C904        C  0.48435545  0.73818869  0.64781153     0.80800
N905        N  0.48454286  0.73877725  0.61616260    -0.77500
C906        C  0.48358794  0.70753766  0.59975036     0.83300
N907        N  0.48335618  0.67620343  0.61512538    -0.77400
C908        C  0.48345578  0.67560303  0.64683419     0.83400
N909        N  0.48329153  0.70647805  0.66280338    -0.79100
C910        C  0.48866907  0.74108808  0.91727464     0.80800
N911        N  0.48958979  0.71061748  0.90156518    -0.77500
C912        C  0.48804915  0.67875578  0.91678513     0.83300
N913        N  0.48639794  0.67805635  0.94846030    -0.77400
C914        C  0.48643753  0.70904598  0.96456863     0.83400
N915        N  0.48726725  0.74045700  0.94890661    -0.79100
O916        O  0.38969229  0.50811263  0.74877040    -0.87500
C917        C  0.10554272  0.59499256  0.82564630     1.12500
O918        O  0.43982482  0.97380980  0.78313980    -1.35400
O919        O  0.07449441  0.59618322  0.74315402    -0.89000
O920        O  0.35794118  0.93893507  0.74693619    -0.89700
O921        O  0.44003015  0.93044104  0.71605471    -0.78500
O922        O  0.48270771  0.55367197  0.75235302    -1.00600
C923        C  0.05904921  0.97585901  0.72628495     1.22500
O924        O  0.48346294  0.93189643  0.78325009    -1.35500
Mn925      Mn  0.48317771  0.97499334  0.81737889     1.82100
O926        O  0.02672971  0.97519929  0.71717057    -0.77600
O927        O  0.11031611  0.56440148  0.74812591    -0.87000
C928        C  0.05823263  0.97520127  0.84152976     1.13600
C929        C  0.10364986  0.59016866  0.73518039     1.08300
O930        O  0.43921830  0.93262121  0.84900775    -0.78500
O931        O  0.02687956  0.51732471  0.78149939    -1.32200
O932        O  0.40263575  0.89446654  0.81200071    -0.97700
C933        C  0.48435683  0.85450441  0.73784804     1.07100
Mn934      Mn  0.08493968  0.52076758  0.78224713     1.48600
O935        O  0.45043455  0.84766348  0.74993260    -0.86900
Mn936      Mn  0.38199060  0.91965441  0.78243584     1.49600
O937        O  0.39404453  0.50875705  0.81915022    -0.90800
C938        C  0.48235942  0.54864019  0.72440222     1.20300
C939        C  0.36321133  0.97149453  0.82948483     1.12300
Mn940      Mn  0.48255546  0.97394925  0.74877949     1.81000
O941        O  0.06334768  0.97505833  0.81307695    -0.96000
Mn942      Mn  0.43747889  0.52899532  0.78247460     1.49300
C943        C  0.36126135  0.97236124  0.73870020     1.08800
Mn944      Mn  0.03791502  0.92807231  0.78258354     1.49900
C945        C  0.48482844  0.85576533  0.82920046     1.11700
O946        O  0.40419364  0.89388753  0.75335337    -1.01800
O947        O  0.10902343  0.56487998  0.81727407    -0.91400
C948        C  0.40899747  0.89823680  0.72491624     1.23000
O949        O  0.06382185  0.97509403  0.75429368    -1.02200
O950        O  0.07882219  0.60186814  0.81320105    -0.89600
O951        O  0.01841928  0.88295538  0.81707651    -0.89200
O952        O  0.35646444  0.93901710  0.81631023    -0.89200
Mn953      Mn  0.03116445  0.57495204  0.77980157     1.47900
O954        O  0.02638633  0.97552070  0.85017773    -0.77700
C955        C  0.40716336  0.90077990  0.83999571     1.16100
O956        O  0.48275813  0.51726909  0.71527642    -0.76400
O957        O  0.48568570  0.52022536  0.84742929    -0.76000
Mn958      Mn  0.42995266  0.87350280  0.78416380     1.51100
O959        O  0.01857860  0.88430064  0.74698695    -0.88400
O960        O  0.48609442  0.55591451  0.80999637    -0.95900
O961        O  0.45015189  0.85050593  0.82001103    -0.90900
C962        C  0.48686269  0.55204379  0.83799084     1.13900
C963        C  0.48657570  0.58347998  0.85919822    -0.04700
C964        C  0.50924636  0.59533045  0.88759219    -0.01800
C965        C  0.50968098  0.62613605  0.90669142     0.03200
C966        C  0.48617493  0.64440950  0.89824819    -0.04700
C967        C  0.46254870  0.63163555  0.87040584    -0.03800
C968        C  0.46448514  0.60327013  0.85032169     0.03200
C969        C  0.03548495  0.57889308  0.89578903     0.37800
C970        C  0.43527027  0.64713222  0.86230665     0.37800
C971        C  0.44447902  0.59615924  0.82000837     0.36200
C972        C  0.03638978  0.64067524  0.93398136     0.36200
N973        N  0.42878156  0.59176470  0.79587055    -0.38600
N974        N  0.05789019  0.65240201  0.95565906    -0.38600
N975        N  0.41352068  0.65935492  0.85574611    -0.38000
N976        N  0.05726634  0.56674205  0.90234364    -0.38000
C977        C  0.48812091  0.77389808  0.89919213    -0.04700
C978        C  0.02495122  0.80446931  0.88601558    -0.01800
C979        C  0.02408619  0.83081864  0.86335214     0.03200
C980        C  0.48604619  0.82844655  0.85447268    -0.04700
C981        C  0.44898036  0.79783023  0.86885465    -0.01800
C982        C  0.45024943  0.77071678  0.89068885     0.03200
C983        C  0.06398748  0.80776435  0.89516632     0.37800
C984        C  0.40865812  0.79174597  0.86032785     0.37800
C985        C  0.41211159  0.73791671  0.90333745     0.36200
C986        C  0.06260022  0.85758527  0.84785648     0.36200
N987        N  0.38171190  0.71160811  0.91323239    -0.38600
N988        N  0.09381847  0.87754637  0.83555908    -0.38600
N989        N  0.37617505  0.78599137  0.85350673    -0.38000
N990        N  0.09504802  0.81041109  0.90250389    -0.38000
C991        C  0.48565077  0.64282860  0.66458411    -0.04700
C992        C  0.46272049  0.60135285  0.65540457    -0.01800
C993        C  0.46273213  0.57075460  0.67419763     0.03200
C994        C  0.48437118  0.58087953  0.70301815    -0.04700
C995        C  0.00694752  0.62261889  0.71213974    -0.01800
C996        C  0.00939314  0.65311369  0.69232286     0.03200
C997        C  0.43724794  0.58956946  0.62748714     0.37800
C998        C  0.02697519  0.63532635  0.74245765     0.37800
C999        C  0.03747626  0.69553211  0.70055189     0.36200
C1000       C  0.43709239  0.52847696  0.66514477     0.36200
N1001       N  0.05990859  0.72921840  0.70711307    -0.38600
N1002       N  0.41589408  0.49483353  0.65793923    -0.38600
N1003       N  0.04297798  0.64679899  0.76650873    -0.38000
N1004       N  0.41673371  0.57973511  0.60526798    -0.38000
C1005       C  0.48393464  0.77091998  0.66660074    -0.04700
C1006       C  0.02104542  0.80632481  0.67470831    -0.01800
C1007       C  0.02150891  0.83361157  0.69758237     0.03200
C1008       C  0.48411321  0.82630879  0.71234513    -0.04700
C1009       C  0.44664766  0.79063927  0.70297120    -0.01800
C1010       C  0.44678814  0.76370604  0.68018551     0.03200
C1011       C  0.05934292  0.81405668  0.66023816     0.37800
C1012       C  0.40760961  0.77869967  0.71794510     0.37800
C1013       C  0.40838963  0.72742677  0.67115955     0.36200
C1014       C  0.06145891  0.86749751  0.70690675     0.36200
N1015       N  0.37784689  0.69855242  0.66394796    -0.38600
N1016       N  0.09364023  0.89389703  0.71445029    -0.38600
N1017       N  0.37582932  0.76707767  0.72957509    -0.38000
N1018       N  0.09005099  0.82058815  0.64882638    -0.38000
C1019       C  0.48554555  0.70858759  0.99913496    -0.04700
C1020       C  0.52105422  0.73602614  0.51638573    -0.01800
C1021       C  0.52026689  0.73584129  0.54928804     0.03200
C1022       C  0.48398406  0.70816317  0.56515936    -0.04700
C1023       C  0.44836214  0.68080653  0.54789596    -0.01800
C1024       C  0.44923470  0.68081605  0.51496410     0.03200
C1025       C  0.55893947  0.76345859  0.00026523     0.37800
C1026       C  0.41040952  0.65353534  0.56399657     0.37800
C1027       C  0.41261487  0.65264137  0.49731009     0.36200
C1028       C  0.55715974  0.76347215  0.56686661     0.36200
N1029       N  0.38351256  0.63016417  0.98313692    -0.38600
N1030       N  0.08664070  0.78513637  0.58085888    -0.38600
N1031       N  0.37997547  0.63196186  0.57674899    -0.38000
N1032       N  0.58918023  0.78513777  0.98734818    -0.38000
C1033       C  0.27669401  0.96408341  0.89886001    -0.04700
C1034       C  0.31938923  0.98364774  0.90622854    -0.01800
C1035       C  0.34758360  0.98407206  0.88418476     0.03200
C1036       C  0.33379228  0.96785415  0.85399280    -0.04700
C1037       C  0.29092044  0.94601669  0.84739155    -0.01800
C1038       C  0.26252445  0.94260353  0.87020286     0.03200
C1039       C  0.33479593  0.00453802  0.93585138     0.37800
C1040       C  0.27575835  0.92813252  0.81671069     0.37800
C1041       C  0.21851816  0.91665718  0.86403947     0.36200
C1042       C  0.39007964  0.99862317  0.89335191     0.36200
N1043       N  0.18349319  0.89598794  0.85915161    -0.38600
N1044       N  0.42476172  0.51518543  0.90000005    -0.38600
N1045       N  0.26346181  0.91392892  0.79229827    -0.38000
N1046       N  0.34574885  0.52395141  0.95695455    -0.38000
C1047       C  0.09096157  0.97665579  0.86276265    -0.04700
C1048       C  0.09028927  0.98066451  0.89556940    -0.01800
C1049       C  0.12264528  0.98273403  0.91435530     0.03200
C1050       C  0.15821829  0.98497866  0.90035823    -0.04700
C1051       C  0.16042559  0.98576258  0.86734558    -0.01800
C1052       C  0.12552805  0.97636918  0.84931847     0.03200
C1053       C  0.05610690  0.98166534  0.91048752     0.37800
C1054       C  0.19877939  0.99755464  0.85084982     0.37800
C1055       C  0.12523321  0.96353174  0.81722674     0.36200
C1056       C  0.11870851  0.98271657  0.94796380     0.36200
N1057       N  0.12484361  0.95192899  0.79214530    -0.38600
N1058       N  0.11514986  0.98255829  0.97477205    -0.38600
N1059       N  0.22897608  0.00714391  0.83730003    -0.38000
N1060       N  0.02924611  0.98270723  0.92291145    -0.38000
C1061       C  0.33330080  0.97232127  0.71313179    -0.04700
C1062       C  0.33999424  0.00942936  0.69979914    -0.01800
C1063       C  0.31370315  0.00900391  0.67596786     0.03200
C1064       C  0.27909201  0.97224293  0.66632741    -0.04700
C1065       C  0.27197013  0.93541029  0.67896285    -0.01800
C1066       C  0.29873523  0.93515002  0.70209126     0.03200
C1067       C  0.37174903  0.54863026  0.70707090     0.37800
C1068       C  0.23590620  0.89767083  0.66877475     0.37800
C1069       C  0.28789688  0.89635572  0.71579230     0.36200
C1070       C  0.31846694  0.54326012  0.65816126     0.36200
N1071       N  0.27837122  0.86523317  0.72678738    -0.38600
N1072       N  0.32368267  0.57247159  0.64596760    -0.38600
N1073       N  0.20710602  0.86771105  0.66064456    -0.38000
N1074       N  0.39679267  0.58080801  0.71527346    -0.38000
C1075       C  0.15401244  0.98190029  0.66455643    -0.04700
C1076       C  0.11196436  0.96053104  0.65517889    -0.01800
C1077       C  0.08107890  0.95933274  0.67490938     0.03200
C1078       C  0.09177652  0.97918093  0.70437072    -0.04700
C1079       C  0.13424974  0.00106387  0.71330591    -0.01800
C1080       C  0.16496882  0.00381264  0.69300336     0.03200
C1081       C  0.09996230  0.93788255  0.62600289     0.37800
C1082       C  0.14904362  0.51926937  0.74046649     0.37800
C1083       C  0.20760652  0.52995559  0.69564184     0.36200
C1084       C  0.03798021  0.93374053  0.66619900     0.36200
N1085       N  0.24225860  0.55230055  0.70077537    -0.38600
N1086       N  0.50363352  0.91231176  0.65939883    -0.38600
N1087       N  0.16265949  0.53499885  0.76424727    -0.38000
N1088       N  0.09034600  0.91989424  0.60268503    -0.38000
C1089       C  0.22102367  0.97721923  0.00015745    -0.04700
C1090       C  0.20489961  0.94003989  0.51641594    -0.01800
C1091       C  0.20333140  0.94014418  0.54918236     0.03200
C1092       C  0.21895206  0.97722486  0.56564584    -0.04700
C1093       C  0.23085353  0.50602310  0.54771714    -0.01800
C1094       C  0.23172639  0.50655947  0.51494382     0.03200
C1095       C  0.18957896  0.90228344  0.99933375     0.37800
C1096       C  0.24671674  0.54374056  0.56522930     0.37800
C1097       C  0.24817257  0.54478425  0.49857380     0.36200
C1098       C  0.18505740  0.90214761  0.56602346     0.36200
N1099       N  0.26168297  0.57492612  0.98527432    -0.38600
N1100       N  0.17034145  0.87195443  0.57960414    -0.38600
N1101       N  0.25948390  0.57376006  0.57929626    -0.38000
N1102       N  0.17766046  0.87204566  0.98570562    -0.38000
C1103       C  0.31303654  0.81136529  0.90116763    -0.04700
C1104       C  0.35470548  0.83423445  0.91136639    -0.01800
C1105       C  0.38521172  0.86416200  0.89187766     0.03200
C1106       C  0.37453331  0.87175873  0.86194851    -0.04700
C1107       C  0.33220125  0.84990996  0.85259590    -0.01800
C1108       C  0.30179178  0.82143787  0.87254732     0.03200
C1109       C  0.36687071  0.82621919  0.94142129     0.37800
C1110       C  0.31862530  0.85506092  0.82213132     0.37800
C1111       C  0.25843244  0.80307987  0.86354069     0.36200
C1112       C  0.42816123  0.88392808  0.90157750     0.36200
N1113       N  0.22403094  0.78859132  0.85621243    -0.38600
N1114       N  0.46237996  0.89886516  0.90939692    -0.38600
N1115       N  0.30592402  0.85766771  0.79815587    -0.38000
N1116       N  0.37667007  0.82019051  0.96548990    -0.38000
C1117       C  0.13414313  0.62330412  0.85084932    -0.04700
C1118       C  0.12830196  0.65465905  0.86389099    -0.01800
C1119       C  0.15494496  0.68056128  0.88760438     0.03200
C1120       C  0.18881967  0.67714234  0.89769733    -0.04700
C1121       C  0.19515273  0.64654878  0.88528052    -0.01800
C1122       C  0.16845870  0.62000207  0.86187386     0.03200
C1123       C  0.09679484  0.66275513  0.85207199     0.37800
C1124       C  0.23033000  0.64339702  0.89598788     0.37800
C1125       C  0.17936901  0.59201416  0.84769140     0.36200
C1126       C  0.14829805  0.71190192  0.90111044     0.36200
N1127       N  0.18905074  0.57054436  0.83617103    -0.38600
N1128       N  0.14291232  0.73677419  0.91191492    -0.38600
N1129       N  0.25835540  0.64094271  0.90454721    -0.38000
N1130       N  0.07229858  0.67007005  0.84256678    -0.38000
C1131       C  0.37663126  0.86619555  0.70401447    -0.04700
C1132       C  0.37679019  0.87028197  0.67127611    -0.01800
C1133       C  0.34421322  0.84012430  0.65269823     0.03200
C1134       C  0.30947787  0.80655298  0.66680139    -0.04700
C1135       C  0.30823891  0.80479147  0.69988168    -0.01800
C1136       C  0.34294782  0.83137451  0.71770429     0.03200
C1137       C  0.41099255  0.90463038  0.65615797     0.37800
C1138       C  0.27094581  0.77697005  0.71679821     0.37800
C1139       C  0.34395235  0.82029147  0.75000534     0.36200
C1140       C  0.34713507  0.84468408  0.61912648     0.36200
N1141       N  0.34487305  0.81023212  0.77525363    -0.38600
N1142       N  0.35022926  0.84896680  0.59238954    -0.38600
N1143       N  0.24168207  0.75542579  0.73080401    -0.38000
N1144       N  0.43805844  0.93167570  0.64358421    -0.38000
C1145       C  0.18982144  0.66893708  0.66648777    -0.04700
C1146       C  0.20420753  0.66072398  0.69454851    -0.01800
C1147       C  0.17595204  0.63603425  0.71728505     0.03200
C1148       C  0.13306124  0.61545129  0.71077277    -0.04700
C1149       C  0.11919448  0.61805795  0.68075019    -0.01800
C1150       C  0.14714254  0.64617333  0.65912160     0.03200
C1151       C  0.24821065  0.67734980  0.70008255     0.37800
C1152       C  0.07706912  0.58973569  0.67120791     0.37800
C1153       C  0.13147712  0.65232000  0.62997673     0.36200
C1154       C  0.19127594  0.63334271  0.74781843     0.36200
N1155       N  0.11871501  0.65713243  0.60677875    -0.38600
N1156       N  0.20374187  0.63159329  0.77213809    -0.38600
N1157       N  0.04412198  0.56627349  0.66266446    -0.38000
N1158       N  0.28322072  0.69044949  0.70445582    -0.38000
C1159       C  0.24567222  0.73858730  0.56573386    -0.04700
C1160       C  0.24046992  0.70440087  0.54862846    -0.01800
C1161       C  0.24142507  0.70511576  0.51579656     0.03200
C1162       C  0.24866780  0.74024961  0.99973056    -0.04700
C1163       C  0.25392961  0.77459292  0.51681997    -0.01800
C1164       C  0.25186600  0.77349103  0.54960442     0.03200
C1165       C  0.23554369  0.66878238  0.56469029     0.37800
C1166       C  0.26003942  0.81047785  0.00074685     0.37800
C1167       C  0.25447026  0.80787088  0.56654467     0.36200
C1168       C  0.23633128  0.66980701  0.49872869     0.36200
N1169       N  0.25653276  0.83532033  0.57996593    -0.38600
N1170       N  0.23272636  0.64159849  0.98527122    -0.38600
N1171       N  0.26516861  0.83931550  0.98799681    -0.38000
N1172       N  0.23153005  0.64041132  0.57752929    -0.38000
C1173       C  0.71760988  0.20466020  0.14750993     0.80800
N1174       N  0.74827656  0.23711626  0.16261006    -0.77500
C1175       C  0.77674152  0.27071590  0.14769858     0.83300
N1176       N  0.77404137  0.27135706  0.11618611    -0.77400
C1177       C  0.74353267  0.23912562  0.10018891     0.83400
N1178       N  0.71520628  0.20563855  0.11595604    -0.79100
C1179       C  0.72119272  0.21280027  0.41636429     0.80800
N1180       N  0.71882829  0.21280003  0.44785829    -0.77500
C1181       C  0.74817479  0.24475365  0.46481031     0.83300
N1182       N  0.77920382  0.27737572  0.44984438    -0.77400
C1183       C  0.78133471  0.27753571  0.41813136     0.83400
N1184       N  0.75253931  0.24474986  0.40186923    -0.79100
C1185       C  0.74383568  0.46834001  0.14598989     0.80800
N1186       N  0.71323549  0.47073502  0.16071037    -0.77500
C1187       C  0.68335882  0.47303366  0.14442732     0.83300
N1188       N  0.68391571  0.47211103  0.11281205    -0.77400
C1189       C  0.71403875  0.46870049  0.09783628     0.83400
N1190       N  0.74435967  0.46731633  0.11440538    -0.79100
C1191       C  0.74662891  0.46773541  0.41619912     0.80800
N1192       N  0.74624376  0.46610571  0.44776191    -0.77500
C1193       C  0.71772259  0.47111962  0.46376278     0.83300
N1194       N  0.68986016  0.47770297  0.44826649    -0.77400
C1195       C  0.69019156  0.47944896  0.41670315     0.83400
N1196       N  0.71873261  0.47430629  0.40143191    -0.79100
C1197       C  0.98267422  0.23656986  0.14772978     0.80800
N1198       N  0.98487733  0.23764568  0.11615006    -0.77500
C1199       C  0.98527908  0.20679489  0.10017633     0.83300
N1200       N  0.98431292  0.17531510  0.11595088    -0.77400
C1201       C  0.98231074  0.17428676  0.14766590     0.83400
N1202       N  0.98074332  0.20473123  0.16302454    -0.79100
C1203       C  0.98422425  0.23986221  0.41748508     0.80800
N1204       N  0.98488280  0.20902759  0.40201153    -0.77500
C1205       C  0.98404795  0.17765455  0.41758288     0.83300
N1206       N  0.98331748  0.17783989  0.44926033    -0.77400
C1207       C  0.98334304  0.20897579  0.46508587     0.83400
N1208       N  0.98360246  0.23994915  0.44916560    -0.79100
O1209       O  0.88742786  0.00582762  0.25156311    -0.87500
C1210       C  0.60439726  0.09626295  0.32609364     1.12500
O1211       O  0.94133308  0.47521270  0.28146577    -1.35400
O1212       O  0.57136761  0.09633657  0.24394307    -0.89000
O1213       O  0.85966076  0.44107921  0.24575425    -0.89700
O1214       O  0.94118797  0.43121354  0.21443177    -0.78500
O1215       O  0.97976474  0.05158433  0.25411440    -1.00600
C1216       C  0.55979881  0.47532410  0.22497155     1.22500
O1217       O  0.98402873  0.43218669  0.28183659    -1.35500
Mn1218     Mn  0.98412878  0.47564024  0.31590582     1.82100
O1219       O  0.52772983  0.47530049  0.21609275    -0.77600
O1220       O  0.60781477  0.06511773  0.24855478    -0.87000
C1221       C  0.55807365  0.47461729  0.34021829     1.13600
C1222       C  0.60072609  0.09071708  0.23566717     1.08300
O1223       O  0.93996768  0.43361902  0.34763314    -0.78500
O1224       O  0.52546402  0.01707896  0.28291656    -1.32200
O1225       O  0.90343634  0.39567585  0.31058566    -0.97700
C1226       C  0.98447959  0.35385071  0.23727502     1.07100
Mn1227     Mn  0.58396382  0.02167006  0.28321632     1.48600
O1228       O  0.95061655  0.34812983  0.24873194    -0.86900
Mn1229     Mn  0.88339252  0.42142010  0.28102835     1.49600
O1230       O  0.89250759  0.00633697  0.32164405    -0.90800
C1231       C  0.97905497  0.04676459  0.22611521     1.20300
C1232       C  0.86512492  0.47409277  0.32751889     1.12300
Mn1233     Mn  0.98382920  0.47461816  0.24733001     1.81000
O1234       O  0.56262635  0.47428583  0.31178316    -0.96000
Mn1235     Mn  0.93530601  0.02706478  0.28465943     1.49300
C1236       C  0.86297046  0.47420377  0.23674800     1.08800
Mn1237     Mn  0.53810337  0.42748983  0.28156208     1.49900
C1238       C  0.98396169  0.35562670  0.32839902     1.11700
O1239       O  0.90512332  0.39522894  0.25186594    -1.01800
O1240       O  0.60813900  0.06624846  0.31787422    -0.91400
C1241       C  0.91018616  0.39903943  0.22340792     1.23000
O1242       O  0.56499069  0.47446430  0.25297766    -1.02200
O1243       O  0.57698759  0.10241122  0.31397300    -0.89600
O1244       O  0.51798607  0.38252446  0.31641826    -0.89200
O1245       O  0.85858081  0.44131899  0.31496353    -0.89200
Mn1246     Mn  0.52866296  0.07426370  0.28112754     1.47900
O1247       O  0.52670457  0.47561201  0.34905411    -0.77700
C1248       C  0.90795382  0.40179332  0.33861613     1.16100
O1249       O  0.98038762  0.01600784  0.21670458    -0.76400
O1250       O  0.98440390  0.01941915  0.34908144    -0.76000
Mn1251     Mn  0.93021703  0.37423642  0.28276876     1.51100
O1252       O  0.51908349  0.38333156  0.24643908    -0.88400
O1253       O  0.98412576  0.05479228  0.31172843    -0.95900
O1254       O  0.94962479  0.35078404  0.31878739    -0.90900
C1255       C  0.98504854  0.05103643  0.33971174     1.13900
C1256       C  0.98375867  0.08205550  0.36093164    -0.04700
C1257       C  0.00666836  0.09469483  0.38919435    -0.01800
C1258       C  0.00657962  0.12544872  0.40808531     0.03200
C1259       C  0.98240000  0.14299856  0.39953132    -0.04700
C1260       C  0.95804870  0.12897432  0.37212250    -0.03800
C1261       C  0.96055510  0.10078714  0.35215047     0.03200
C1262       C  0.53359160  0.07904198  0.39747327     0.37800
C1263       C  0.92912436  0.14269163  0.36460346     0.37800
C1264       C  0.93999529  0.09287779  0.32203031     0.36200
C1265       C  0.53319034  0.14039135  0.43546575     0.36200
N1266       N  0.92371672  0.08787624  0.29807335    -0.38600
N1267       N  0.55445343  0.15233563  0.45726372    -0.38600
N1268       N  0.90591169  0.15336286  0.35866473    -0.38000
N1269       N  0.55586880  0.06746726  0.40399855    -0.38000
C1270       C  0.98444270  0.27300364  0.39919183    -0.04700
C1271       C  0.52197235  0.30407964  0.38703318    -0.01800
C1272       C  0.52208812  0.33107190  0.36447198     0.03200
C1273       C  0.98423865  0.32822525  0.35408543    -0.04700
C1274       C  0.94660676  0.29747968  0.36778484    -0.01800
C1275       C  0.94703053  0.27042841  0.39013982     0.03200
C1276       C  0.56065579  0.30752995  0.39740800     0.37800
C1277       C  0.90659898  0.29129194  0.35813806     0.37800
C1278       C  0.90856421  0.23885591  0.40332084     0.36200
C1279       C  0.56156577  0.35939578  0.35096001     0.36200
N1280       N  0.87792130  0.21375477  0.41387715    -0.38600
N1281       N  0.59380541  0.38058501  0.34052127    -0.38600
N1282       N  0.87437749  0.28548856  0.35043555    -0.38000
N1283       N  0.59147884  0.31041443  0.40574063    -0.38000
C1284       C  0.98306153  0.14130484  0.16626908    -0.04700
C1285       C  0.96160670  0.10007293  0.15633887    -0.01800
C1286       C  0.96036309  0.06920582  0.17554407     0.03200
C1287       C  0.98028719  0.07892380  0.20507865    -0.04700
C1288       C  0.50076918  0.12028527  0.21529813    -0.01800
C1289       C  0.50347400  0.15106589  0.19571132     0.03200
C1290       C  0.93896243  0.08885047  0.12704110     0.37800
C1291       C  0.51853234  0.13219417  0.24642144     0.37800
C1292       C  0.52793993  0.19312978  0.20625363     0.36200
C1293       C  0.93552613  0.02708638  0.16587139     0.36200
N1294       N  0.54719114  0.22643780  0.21496228    -0.38600
N1295       N  0.91486822  0.99357799  0.15810873    -0.38600
N1296       N  0.53255994  0.14276012  0.27114164    -0.38000
N1297       N  0.92084616  0.07981057  0.10366665    -0.38000
C1298       C  0.98180538  0.26916181  0.16631218    -0.04700
C1299       C  0.51871940  0.30647018  0.17188956    -0.01800
C1300       C  0.52023290  0.33339960  0.19549798     0.03200
C1301       C  0.98368857  0.32476788  0.21246988    -0.04700
C1302       C  0.94680970  0.28703393  0.20619770    -0.01800
C1303       C  0.94608039  0.25984563  0.18329809     0.03200
C1304       C  0.55567243  0.31605542  0.15437976     0.37800
C1305       C  0.91021612  0.27318085  0.22516619     0.37800
C1306       C  0.90849210  0.22112856  0.17778894     0.36200
C1307       C  0.56050359  0.36738745  0.20396875     0.36200
N1308       N  0.87869032  0.19020634  0.17343100    -0.38600
N1309       N  0.59304292  0.39350907  0.21109282    -0.38600
N1310       N  0.88082533  0.26066963  0.24027264    -0.38000
N1311       N  0.58514553  0.32392721  0.14039411    -0.38000
C1312       C  0.98375932  0.20923528  0.49964564    -0.04700
C1313       C  0.02174923  0.22867923  0.01606326    -0.01800
C1314       C  0.02236148  0.22756706  0.04897091     0.03200
C1315       C  0.98496203  0.20682276  0.06560091    -0.04700
C1316       C  0.94695219  0.18728523  0.04916918    -0.01800
C1317       C  0.94632585  0.18880604  0.01628905     0.03200
C1318       C  0.06022530  0.24989386  0.49900371     0.37800
C1319       C  0.90848475  0.16549961  0.06617297     0.37800
C1320       C  0.90718679  0.16978634  0.99954121     0.36200
C1321       C  0.06146450  0.24740989  0.06574234     0.36200
N1322       N  0.87600486  0.15473399  0.48611271    -0.38600
N1323       N  0.59298255  0.26323471  0.07905403    -0.38600
N1324       N  0.87788187  0.14800113  0.07981606    -0.38000
N1325       N  0.09080089  0.26674747  0.48525089    -0.38000
C1326       C  0.77708351  0.46354371  0.39677394    -0.04700
C1327       C  0.81978480  0.48520811  0.40400478    -0.01800
C1328       C  0.84870081  0.48711998  0.38198314     0.03200
C1329       C  0.83543994  0.47059990  0.35176838    -0.04700
C1330       C  0.79263001  0.44770568  0.34502483    -0.01800
C1331       C  0.76370210  0.44233345  0.36799418     0.03200
C1332       C  0.83429789  0.50678443  0.43348501     0.37800
C1333       C  0.77804774  0.43086695  0.31399296     0.37800
C1334       C  0.71998135  0.41467273  0.36191285     0.36200
C1335       C  0.89138254  0.50344966  0.39133100     0.36200
N1336       N  0.68520150  0.39252310  0.35706304    -0.38600
N1337       N  0.92342713  0.00903092  0.40151601    -0.38600
N1338       N  0.76630160  0.41768478  0.28925435    -0.38000
N1339       N  0.84722908  0.02121069  0.45944716    -0.38000
C1340       C  0.59084619  0.47574137  0.36105365    -0.04700
C1341       C  0.59087534  0.48052981  0.39379120    -0.01800
C1342       C  0.62366063  0.48320306  0.41229713     0.03200
C1343       C  0.65798402  0.48310051  0.39812658    -0.04700
C1344       C  0.65948799  0.48270935  0.36505638    -0.01800
C1345       C  0.62480372  0.47463446  0.34725080     0.03200
C1346       C  0.55679843  0.48149864  0.40894341     0.37800
C1347       C  0.69702500  0.49228266  0.34816440     0.37800
C1348       C  0.62407488  0.46234567  0.31488283     0.36200
C1349       C  0.62199989  0.48733695  0.44580711     0.36200
N1350       N  0.62337745  0.45113526  0.28962100    -0.38600
N1351       N  0.62039287  0.49081429  0.47251211    -0.38600
N1352       N  0.72649997  0.50015037  0.33417764    -0.38000
N1353       N  0.52983912  0.48223143  0.42148783    -0.38000
C1354       C  0.83382159  0.47262003  0.21141134    -0.04700
C1355       C  0.83949288  0.50871777  0.19692919    -0.01800
C1356       C  0.81200225  0.50659418  0.17331673     0.03200
C1357       C  0.77723048  0.46912853  0.16500629    -0.04700
C1358       C  0.77089089  0.43331067  0.17905909    -0.01800
C1359       C  0.79891806  0.43468178  0.20180709     0.03200
C1360       C  0.87192153  0.04886654  0.21154948     0.37800
C1361       C  0.73434464  0.39489516  0.17073677     0.37800
C1362       C  0.78934068  0.39660652  0.21627126     0.36200
C1363       C  0.82134076  0.04699965  0.16209983     0.36200
N1364       N  0.78097009  0.36600969  0.22772138    -0.38600
N1365       N  0.82753654  0.07712941  0.15095466    -0.38600
N1366       N  0.70514338  0.36436617  0.16419010    -0.38000
N1367       N  0.89654702  0.08049887  0.22103652    -0.38000
C1368       C  0.65181728  0.47814150  0.16182121    -0.04700
C1369       C  0.60938154  0.45611822  0.15360164    -0.01800
C1370       C  0.57950918  0.45665847  0.17352259     0.03200
C1371       C  0.59156799  0.47775086  0.20249893    -0.04700
C1372       C  0.63439213  0.50006236  0.21026218    -0.01800
C1373       C  0.66409045  0.50236627  0.18912133     0.03200
C1374       C  0.59596809  0.43075645  0.12576192     0.37800
C1375       C  0.64762738  0.02029502  0.24373723     0.37800
C1376       C  0.70831021  0.03002194  0.20155497     0.36200
C1377       C  0.53602072  0.43124146  0.16579892     0.36200
N1378       N  0.74269202  0.05079023  0.20849870    -0.38600
N1379       N  0.00132239  0.41004430  0.15977404    -0.38600
N1380       N  0.66008212  0.03596515  0.26770541    -0.38000
N1381       N  0.58513063  0.41041288  0.10359638    -0.38000
C1382       C  0.71738302  0.47035686  0.49800867    -0.04700
C1383       C  0.70153752  0.43289982  0.01377936    -0.01800
C1384       C  0.70024551  0.43231682  0.04660381     0.03200
C1385       C  0.71518457  0.46900404  0.06354950    -0.04700
C1386       C  0.73593386  0.01446478  0.04948118    -0.01800
C1387       C  0.73653330  0.01438839  0.01668778     0.03200
C1388       C  0.68582677  0.39546022  0.49621407     0.37800
C1389       C  0.75353609  0.05255682  0.06666375     0.37800
C1390       C  0.75377126  0.05235240  0.99987782     0.36200
C1391       C  0.68274232  0.39400222  0.06294040     0.36200
N1392       N  0.76661278  0.08200147  0.48617126    -0.38600
N1393       N  0.66859266  0.36342912  0.07597960    -0.38600
N1394       N  0.76787342  0.08286026  0.08051341    -0.38000
N1395       N  0.67328204  0.36547447  0.48211841    -0.38000
C1396       C  0.81348138  0.31321072  0.40036721    -0.04700
C1397       C  0.85541600  0.33491379  0.41002291    -0.01800
C1398       C  0.88608535  0.36450759  0.39035454     0.03200
C1399       C  0.87536190  0.37264327  0.36060850    -0.04700
C1400       C  0.83301967  0.35113240  0.35137579    -0.01800
C1401       C  0.80245589  0.32309087  0.37150662     0.03200
C1402       C  0.86763841  0.32542324  0.43945823     0.37800
C1403       C  0.81975138  0.35612153  0.32072464     0.37800
C1404       C  0.75919300  0.30452807  0.36218970     0.36200
C1405       C  0.92915765  0.38326738  0.39955770     0.36200
N1406       N  0.72486593  0.28969253  0.35455729    -0.38600
N1407       N  0.96348977  0.39743804  0.40689034    -0.38600
N1408       N  0.80766396  0.35871886  0.29648983    -0.38000
N1409       N  0.87747659  0.31797659  0.46295430    -0.38000
C1410       C  0.63357425  0.12531765  0.35071042    -0.04700
C1411       C  0.62720301  0.15612154  0.36416692    -0.01800
C1412       C  0.65406384  0.18230609  0.38769048     0.03200
C1413       C  0.68875282  0.17983410  0.39709324    -0.04700
C1414       C  0.69612920  0.15036024  0.38369944    -0.01800
C1415       C  0.66904309  0.12333372  0.36067234     0.03200
C1416       C  0.59492116  0.16341729  0.35289003     0.37800
C1417       C  0.73274330  0.14885842  0.39297506     0.37800
C1418       C  0.68049026  0.09606599  0.34587535     0.36200
C1419       C  0.64701097  0.21324882  0.40146590     0.36200
N1420       N  0.69052526  0.07507511  0.33398040    -0.38600
N1421       N  0.64139769  0.23788528  0.41245036    -0.38600
N1422       N  0.76195489  0.14773436  0.40028130    -0.38000
N1423       N  0.56985496  0.17015151  0.34375649    -0.38000
C1424       C  0.87855378  0.36594164  0.20270380    -0.04700
C1425       C  0.87816696  0.36936273  0.16992208    -0.01800
C1426       C  0.84593029  0.33818306  0.15170416     0.03200
C1427       C  0.81133626  0.30486857  0.16621991    -0.04700
C1428       C  0.81124148  0.30309007  0.19933759    -0.01800
C1429       C  0.84615331  0.33043236  0.21668483     0.03200
C1430       C  0.91123769  0.40426603  0.15445072     0.37800
C1431       C  0.77500016  0.27453465  0.21689364     0.37800
C1432       C  0.84831602  0.32008489  0.24902385     0.36200
C1433       C  0.84931103  0.34104108  0.11803414     0.36200
N1434       N  0.84983414  0.31102895  0.27448408    -0.38600
N1435       N  0.85254321  0.34353143  0.09119876    -0.38600
N1436       N  0.74669691  0.25252458  0.23160118    -0.38000
N1437       N  0.93739017  0.43178458  0.14159314    -0.38000
C1438       C  0.68746985  0.16953185  0.16657411    -0.04700
C1439       C  0.70149065  0.16011935  0.19430084    -0.01800
C1440       C  0.67311633  0.13611901  0.21728614     0.03200
C1441       C  0.63013751  0.11643431  0.21116700    -0.04700
C1442       C  0.61634181  0.12030912  0.18142564    -0.01800
C1443       C  0.64454652  0.14850658  0.15987235     0.03200
C1444       C  0.74521996  0.17463919  0.19924286     0.37800
C1445       C  0.57409049  0.09286310  0.17180567     0.37800
C1446       C  0.62891744  0.15660446  0.13150900     0.36200
C1447       C  0.68852773  0.13339621  0.24776373     0.36200
N1448       N  0.61622995  0.16312723  0.10899090    -0.38600
N1449       N  0.70106624  0.13177184  0.27207741    -0.38600
N1450       N  0.54113099  0.07000848  0.16292925    -0.38000
N1451       N  0.77998466  0.18599987  0.20325401    -0.38000
C1452       C  0.74293503  0.23990302  0.06556325    -0.04700
C1453       C  0.74128411  0.20754247  0.04809939    -0.01800
C1454       C  0.74203687  0.20874074  0.01525310     0.03200
C1455       C  0.74642456  0.24337798  0.49949811    -0.04700
C1456       C  0.74868321  0.27590019  0.01699528    -0.01800
C1457       C  0.74608371  0.27386461  0.04984182     0.03200
C1458       C  0.74100397  0.17384763  0.06393875     0.37800
C1459       C  0.75254530  0.31139559  0.50128168     0.37800
C1460       C  0.74525968  0.30617955  0.06739607     0.36200
C1461       C  0.73927802  0.17466108  0.99780385     0.36200
N1462       N  0.74436026  0.33178447  0.08144181    -0.38600
N1463       N  0.73631881  0.14729126  0.48393945    -0.38600
N1464       N  0.75577772  0.33970030  0.48882539    -0.38000
N1465       N  0.74107584  0.14724655  0.07674015    -0.38000
C1466       C  0.71751496  0.20474588  0.64752526     0.80800
N1467       N  0.74817738  0.23720319  0.66262774    -0.77500
C1468       C  0.77662599  0.27081516  0.64771849     0.83300
N1469       N  0.77391624  0.27146381  0.61620706    -0.77400
C1470       C  0.74340961  0.23923273  0.60020773     0.83400
N1471       N  0.71509824  0.20573743  0.61597395    -0.79100
C1472       C  0.72124796  0.21272401  0.91634427     0.80800
N1473       N  0.71890259  0.21269332  0.94784083    -0.77500
C1474       C  0.74824279  0.24464597  0.96479693     0.83300
N1475       N  0.77924932  0.27729088  0.94983638    -0.77400
C1476       C  0.78136554  0.27747802  0.91812263     0.83400
N1477       N  0.75257163  0.24469948  0.90185259    -0.79100
C1478       C  0.74393566  0.46852517  0.64597360     0.80800
N1479       N  0.71329172  0.47082035  0.66071464    -0.77500
C1480       C  0.68339807  0.47311505  0.64445247     0.83300
N1481       N  0.68397637  0.47228123  0.61283603    -0.77400
C1482       C  0.71414625  0.46897383  0.59783869     0.83400
N1483       N  0.74448391  0.46759377  0.61438770    -0.79100
C1484       C  0.74662499  0.46773545  0.91618595     0.80800
N1485       N  0.74618826  0.46598475  0.94774283    -0.77500
C1486       C  0.71762484  0.47091369  0.96375905     0.83300
N1487       N  0.68977410  0.47753696  0.94828193    -0.77400
C1488       C  0.69016621  0.47941171  0.91672244     0.83400
N1489       N  0.71875043  0.47435309  0.90143850    -0.79100
C1490       C  0.98261424  0.23659328  0.64771326     0.80800
N1491       N  0.98483756  0.23766408  0.61613443    -0.77500
C1492       C  0.98522469  0.20679889  0.60017146     0.83300
N1493       N  0.98422502  0.17530982  0.61595783    -0.77400
C1494       C  0.98220453  0.17428863  0.64767319     0.83400
N1495       N  0.98065027  0.20474744  0.66301910    -0.79100
C1496       C  0.98412516  0.23984107  0.91750246     0.80800
N1497       N  0.98479154  0.20901401  0.90202320    -0.77500
C1498       C  0.98398445  0.17765101  0.91758939     0.83300
N1499       N  0.98327643  0.17784086  0.94926700    -0.77400
C1500       C  0.98329535  0.20896987  0.96509758     0.83400
N1501       N  0.98352715  0.23993328  0.94918310    -0.79100
O1502       O  0.88741009  0.00583193  0.75157446    -0.87500
C1503       C  0.60439345  0.09624223  0.82607097     1.12500
O1504       O  0.94134757  0.47526288  0.78147311    -1.35400
O1505       O  0.57134750  0.09631474  0.74393914    -0.89000
O1506       O  0.85968965  0.44118608  0.74575654    -0.89700
O1507       O  0.94116310  0.43124876  0.71443782    -0.78500
O1508       O  0.97975029  0.05161121  0.75411889    -1.00600
C1509       C  0.55977757  0.47527979  0.72501060     1.22500
O1510       O  0.98398644  0.43218266  0.78185018    -1.35500
Mn1511     Mn  0.98411603  0.47565249  0.81591873     1.82100
O1512       O  0.52771746  0.47526766  0.71612353    -0.77600
O1513       O  0.60778608  0.06508353  0.74852383    -0.87000
C1514       C  0.55803923  0.47458732  0.84025622     1.13600
C1515       C  0.60069840  0.09069091  0.73565028     1.08300
O1516       O  0.93993696  0.43363999  0.84764020    -0.78500
O1517       O  0.52544502  0.01705669  0.78290697    -1.32200
O1518       O  0.90339303  0.39570570  0.81059169    -0.97700
C1519       C  0.98439227  0.35383523  0.73727783     1.07100
Mn1520     Mn  0.58394589  0.02164792  0.78319255     1.48600
O1521       O  0.95052988  0.34812392  0.74872894    -0.86900
Mn1522     Mn  0.88339002  0.42149058  0.78103279     1.49600
O1523       O  0.89250448  0.00634303  0.82165345    -0.90800
C1524       C  0.97903057  0.04679246  0.72611947     1.20300
C1525       C  0.86515970  0.47419732  0.82750562     1.12300
Mn1526     Mn  0.98382866  0.47463388  0.74734167     1.81000
O1527       O  0.56258524  0.47424729  0.81182067    -0.96000
Mn1528     Mn  0.93529545  0.02708030  0.78466594     1.49300
C1529       C  0.86303649  0.47432112  0.73673387     1.08800
Mn1530     Mn  0.53805976  0.42744810  0.78160141     1.49900
C1531       C  0.98386329  0.35559152  0.82840895     1.11700
O1532       O  0.90509804  0.39527980  0.75187411    -1.01800
O1533       O  0.60813631  0.06623452  0.81783661    -0.91400
C1534       C  0.91014735  0.39908652  0.72341605     1.23000
O1535       O  0.56495916  0.47441909  0.75301743    -1.02200
O1536       O  0.57696958  0.10238553  0.81396922    -0.89600
O1537       O  0.51792488  0.38248573  0.81645844    -0.89200
O1538       O  0.85861024  0.44141571  0.81496410    -0.89200
Mn1539     Mn  0.52864185  0.07423967  0.78112028     1.47900
O1540       O  0.52667416  0.47559001  0.84909083    -0.77700
C1541       C  0.90791841  0.40181889  0.83862276     1.16100
O1542       O  0.98036915  0.01603951  0.71670460    -0.76400
O1543       O  0.98441284  0.01945085  0.84908250    -0.76000
Mn1544     Mn  0.93015339  0.37424528  0.78277305     1.51100
O1545       O  0.51903780  0.38328227  0.74648156    -0.88400
O1546       O  0.98411815  0.05481542  0.81173011    -0.95900
O1547       O  0.94953123  0.35075617  0.81878983    -0.90900
C1548       C  0.98504531  0.05106308  0.83971308     1.13900
C1549       C  0.98374607  0.08207996  0.86093156    -0.04700
C1550       C  0.00665860  0.09473034  0.88919246    -0.01800
C1551       C  0.00655347  0.12547487  0.90808476     0.03200
C1552       C  0.98235629  0.14300679  0.89953343    -0.04700
C1553       C  0.95800618  0.12897544  0.87212442    -0.03800
C1554       C  0.96052738  0.10079682  0.85215146     0.03200
C1555       C  0.53363879  0.07909808  0.89743101     0.37800
C1556       C  0.92906730  0.14267546  0.86460639     0.37800
C1557       C  0.93996491  0.09288017  0.82203210     0.36200
C1558       C  0.53319457  0.14042190  0.93542809     0.36200
N1559       N  0.92368222  0.08787313  0.79807632    -0.38600
N1560       N  0.55447043  0.15238810  0.95721832    -0.38600
N1561       N  0.90584381  0.15333356  0.85866880    -0.38000
N1562       N  0.55594578  0.06755604  0.90394738    -0.38000
C1563       C  0.98433949  0.27298300  0.89921476    -0.04700
C1564       C  0.52185455  0.30404595  0.88709836    -0.01800
C1565       C  0.52198883  0.33104889  0.86454060     0.03200
C1566       C  0.98413494  0.32818878  0.85409543    -0.04700
C1567       C  0.94650239  0.29744390  0.86779304    -0.01800
C1568       C  0.94692628  0.27040061  0.89015567     0.03200
C1569       C  0.56053425  0.30752670  0.89752167     0.37800
C1570       C  0.90649513  0.29124445  0.85813206     0.37800
C1571       C  0.90846055  0.23883047  0.90333860     0.36200
C1572       C  0.56148605  0.35940904  0.85107618     0.36200
N1573       N  0.87781845  0.21373149  0.91389752    -0.38600
N1574       N  0.59374679  0.38062044  0.84067915    -0.38600
N1575       N  0.87427465  0.28543248  0.85041768    -0.38000
N1576       N  0.59135432  0.31043610  0.90589159    -0.38000
C1577       C  0.98294282  0.14130889  0.66629026    -0.04700
C1578       C  0.96147015  0.10007212  0.65637352    -0.01800
C1579       C  0.96026178  0.06921347  0.67557035     0.03200
C1580       C  0.98022818  0.07894314  0.70508894    -0.04700
C1581       C  0.50075268  0.12025347  0.71527571    -0.01800
C1582       C  0.50345485  0.15102913  0.69568470     0.03200
C1583       C  0.93875595  0.08883625  0.62710645     0.37800
C1584       C  0.51853501  0.13217368  0.74639241     0.37800
C1585       C  0.52796307  0.19310019  0.70620112     0.36200
C1586       C  0.93542445  0.02709048  0.66590665     0.36200
N1587       N  0.54725161  0.22641561  0.71488605    -0.38600
N1588       N  0.91476896  0.99357808  0.65815234    -0.38600
N1589       N  0.53257840  0.14275013  0.77110725    -0.38000
N1590       N  0.92057726  0.07978711  0.60375943    -0.38000
C1591       C  0.98175343  0.26919602  0.66628364    -0.04700
C1592       C  0.51864049  0.30641397  0.67191822    -0.01800
C1593       C  0.52016783  0.33334436  0.69553163     0.03200
C1594       C  0.98360729  0.32477270  0.71245560    -0.04700
C1595       C  0.94669887  0.28709636  0.70609901    -0.01800
C1596       C  0.94598688  0.25992090  0.68319500     0.03200
C1597       C  0.55558392  0.31600037  0.65439510     0.37800
C1598       C  0.91003628  0.27328106  0.72497877     0.37800
C1599       C  0.90837279  0.22125053  0.67761060     0.36200
C1600       C  0.56044397  0.36732367  0.70400213     0.36200
N1601       N  0.87855113  0.19036398  0.67319375    -0.38600
N1602       N  0.59298715  0.39343698  0.71112769    -0.38600
N1603       N  0.88058302  0.26079100  0.74001073    -0.38000
N1604       N  0.58504992  0.32387376  0.64039927    -0.38000
C1605       C  0.98373935  0.20923426  0.99965605    -0.04700
C1606       C  0.02175459  0.22873115  0.51607074    -0.01800
C1607       C  0.02234283  0.22762613  0.54897982     0.03200
C1608       C  0.98493460  0.20682684  0.56559421    -0.04700
C1609       C  0.94693913  0.18724400  0.54914446    -0.01800
C1610       C  0.94633580  0.18876353  0.51626292     0.03200
C1611       C  0.06020938  0.24979954  0.99897949     0.37800
C1612       C  0.90846111  0.16542804  0.56613170     0.37800
C1613       C  0.90720842  0.16970620  0.49949815     0.36200
C1614       C  0.06143161  0.24754051  0.56576867     0.36200
N1615       N  0.87597555  0.15484366  0.98616752    -0.38600
N1616       N  0.59292895  0.26325642  0.57913892    -0.38600
N1617       N  0.87784877  0.14790816  0.57976065    -0.38000
N1618       N  0.09077639  0.26662033  0.98521314    -0.38000
C1619       C  0.77709658  0.46360142  0.89674690    -0.04700
C1620       C  0.81979485  0.48529368  0.90397974    -0.01800
C1621       C  0.84872039  0.48722030  0.88196312     0.03200
C1622       C  0.83547100  0.47071396  0.85174398    -0.04700
C1623       C  0.79266441  0.44782015  0.84498883    -0.01800
C1624       C  0.76372721  0.44241608  0.86795754     0.03200
C1625       C  0.83429276  0.50689265  0.93345282     0.37800
C1626       C  0.77809484  0.43100363  0.81394964     0.37800
C1627       C  0.72000967  0.41475347  0.86186420     0.36200
C1628       C  0.89139275  0.50352901  0.89132624     0.36200
N1629       N  0.68523244  0.39260479  0.85700337    -0.38600
N1630       N  0.92347936  0.00904087  0.90152156    -0.38600
N1631       N  0.76635715  0.41783709  0.78920625    -0.38000
N1632       N  0.84738764  0.02138770  0.95944468    -0.38000
C1633       C  0.59081821  0.47572007  0.86109024    -0.04700
C1634       C  0.59086203  0.48052292  0.89382775    -0.01800
C1635       C  0.62366305  0.48321740  0.91232748     0.03200
C1636       C  0.65797180  0.48309432  0.89815190    -0.04700
C1637       C  0.65946582  0.48270128  0.86508068    -0.01800
C1638       C  0.62477351  0.47461530  0.84728226     0.03200
C1639       C  0.55677981  0.48147331  0.90898683     0.37800
C1640       C  0.69699750  0.49228180  0.84817789     0.37800
C1641       C  0.62402487  0.46229508  0.81492039     0.36200
C1642       C  0.62205119  0.48742122  0.94583372     0.36200
N1643       N  0.62330893  0.45105411  0.78966580    -0.38600
N1644       N  0.62048957  0.49096036  0.97253578    -0.38600
N1645       N  0.72646698  0.50015775  0.83418066    -0.38000
N1646       N  0.52981388  0.48218644  0.92153728    -0.38000
C1647       C  0.83390553  0.47275477  0.71138707    -0.04700
C1648       C  0.83960721  0.50885874  0.69689463    -0.01800
C1649       C  0.81212075  0.50675148  0.67328369     0.03200
C1650       C  0.77733431  0.46929583  0.66497521    -0.04700
C1651       C  0.77097789  0.43347067  0.67902609    -0.01800
C1652       C  0.79898667  0.43482701  0.70178454     0.03200
C1653       C  0.87181133  0.04884215  0.71159886     0.37800
C1654       C  0.73443586  0.39506071  0.67068570     0.37800
C1655       C  0.78936790  0.39675062  0.71626741     0.36200
C1656       C  0.82120125  0.04693480  0.66215544     0.36200
N1657       N  0.78096187  0.36615507  0.72773656    -0.38600
N1658       N  0.82736230  0.07705788  0.65101903    -0.38600
N1659       N  0.70524063  0.36453556  0.66412151    -0.38000
N1660       N  0.89641925  0.08047971  0.72108951    -0.38000
C1661       C  0.65182907  0.47814886  0.66187135    -0.04700
C1662       C  0.60939435  0.45610102  0.65365034    -0.01800
C1663       C  0.57950886  0.45661925  0.67356958     0.03200
C1664       C  0.59155458  0.47770545  0.70254854    -0.04700
C1665       C  0.63437485  0.50001580  0.71032417    -0.01800
C1666       C  0.66408500  0.50234733  0.68918455     0.03200
C1667       C  0.59599873  0.43073930  0.62581063     0.37800
C1668       C  0.64759028  0.02025121  0.74371208     0.37800
C1669       C  0.70826283  0.02999468  0.70151402     0.36200
C1670       C  0.53602255  0.43119378  0.66583973     0.36200
N1671       N  0.74264530  0.05077155  0.70845179    -0.38600
N1672       N  0.00126917  0.40992906  0.65982122    -0.38600
N1673       N  0.66004748  0.03591378  0.76768227    -0.38000
N1674       N  0.58517432  0.41039301  0.60364630    -0.38000
C1675       C  0.71729708  0.47011854  0.99800483    -0.04700
C1676       C  0.70156238  0.43314021  0.51379443    -0.01800
C1677       C  0.70026537  0.43257385  0.54661693     0.03200
C1678       C  0.71526197  0.46927469  0.56355233    -0.04700
C1679       C  0.73552196  0.01412110  0.54944027    -0.01800
C1680       C  0.73609216  0.01398684  0.51664838     0.03200
C1681       C  0.68587556  0.39523756  0.99618707     0.37800
C1682       C  0.75289156  0.05223196  0.56657530     0.37800
C1683       C  0.75305126  0.05190091  0.49979638     0.36200
C1684       C  0.68269608  0.39426132  0.56296345     0.36200
N1685       N  0.76755647  0.08249725  0.98629107    -0.38600
N1686       N  0.66849103  0.36369137  0.57601160    -0.38600
N1687       N  0.76705223  0.08255707  0.58038258    -0.38000
N1688       N  0.67339482  0.36526578  0.98208264    -0.38000
C1689       C  0.81349395  0.31317750  0.90036940    -0.04700
C1690       C  0.85543649  0.33486752  0.91000603    -0.01800
C1691       C  0.88609085  0.36447856  0.89033884     0.03200
C1692       C  0.87534129  0.37265733  0.86061831    -0.04700
C1693       C  0.83299050  0.35116799  0.85140899    -0.01800
C1694       C  0.80244389  0.32309499  0.87153533     0.03200
C1695       C  0.86768169  0.32534300  0.93941712     0.37800
C1696       C  0.81969750  0.35620815  0.82078323     0.37800
C1697       C  0.75917373  0.30453684  0.86224183     0.36200
C1698       C  0.92917286  0.38320170  0.89950661     0.36200
N1699       N  0.72484095  0.28970695  0.85462644    -0.38600
N1700       N  0.96351236  0.39733834  0.90680753    -0.38600
N1701       N  0.80758904  0.35883989  0.79656708    -0.38000
N1702       N  0.87753680  0.31786982  0.96289459    -0.38000
C1703       C  0.63358858  0.12529033  0.85068364    -0.04700
C1704       C  0.62726556  0.15613143  0.86412485    -0.01800
C1705       C  0.65414485  0.18230987  0.88764312     0.03200
C1706       C  0.68879246  0.17977790  0.89706898    -0.04700
C1707       C  0.69611744  0.15026106  0.88369503    -0.01800
C1708       C  0.66902729  0.12325879  0.86065868     0.03200
C1709       C  0.59501335  0.16346604  0.85283924     0.37800
C1710       C  0.73268585  0.14869112  0.89299721     0.37800
C1711       C  0.68044961  0.09597391  0.84586030     0.36200
C1712       C  0.64715214  0.21330362  0.90139381     0.36200
N1713       N  0.69046875  0.07497518  0.83395842    -0.38600
N1714       N  0.64159105  0.23798381  0.91235802    -0.38600
N1715       N  0.76185857  0.14750742  0.90032366    -0.38000
N1716       N  0.56996714  0.17022559  0.84370001    -0.38000
C1717       C  0.87847893  0.36600692  0.70271761    -0.04700
C1718       C  0.87809406  0.36942413  0.66993578    -0.01800
C1719       C  0.84582820  0.33826955  0.65172099     0.03200
C1720       C  0.81122502  0.30496644  0.66623864    -0.04700
C1721       C  0.81112963  0.30318956  0.69935604    -0.01800
C1722       C  0.84604747  0.33052197  0.71670399     0.03200
C1723       C  0.91120655  0.40428994  0.65446005     0.37800
C1724       C  0.77488361  0.27463566  0.71690943     0.37800
C1725       C  0.84819014  0.32017836  0.74904764     0.36200
C1726       C  0.84918828  0.34114185  0.61805060     0.36200
N1727       N  0.84969591  0.31111773  0.77450867    -0.38600
N1728       N  0.85240289  0.34364643  0.59121465    -0.38600
N1729       N  0.74657762  0.25262127  0.73161274    -0.38000
N1730       N  0.93739569  0.43177567  0.64159941    -0.38000
C1731       C  0.68740169  0.16959134  0.66657997    -0.04700
C1732       C  0.70144424  0.16017423  0.69429374    -0.01800
C1733       C  0.67308189  0.13612185  0.71726752     0.03200
C1734       C  0.63010139  0.11641751  0.71115175    -0.04700
C1735       C  0.61629191  0.12029732  0.68141837    -0.01800
C1736       C  0.64447898  0.14852466  0.65987340     0.03200
C1737       C  0.74518348  0.17473973  0.69923245     0.37800
C1738       C  0.57404593  0.09282682  0.67179788     0.37800
C1739       C  0.62883054  0.15660463  0.63151238     0.36200
C1740       C  0.68850575  0.13335854  0.74772899     0.36200
N1741       N  0.61612641  0.16310927  0.60899498    -0.38600
N1742       N  0.70105537  0.13169859  0.77202887    -0.38600
N1743       N  0.54109121  0.06995331  0.66292359    -0.38000
N1744       N  0.77995629  0.18613653  0.70324016    -0.38000
C1745       C  0.74281276  0.24001026  0.56557983    -0.04700
C1746       C  0.74105423  0.20759949  0.54811510    -0.01800
C1747       C  0.74184279  0.20881038  0.51526976     0.03200
C1748       C  0.74649942  0.24326193  0.99948314    -0.04700
C1749       C  0.74870805  0.27606134  0.51701020    -0.01800
C1750       C  0.74607849  0.27402064  0.54985589     0.03200
C1751       C  0.74060752  0.17382156  0.56395093     0.37800
C1752       C  0.75237810  0.31117461  0.00126440     0.37800
C1753       C  0.74532928  0.30637828  0.56740457     0.36200
C1754       C  0.73900901  0.17469470  0.49782439     0.36200
N1755       N  0.74448568  0.33201584  0.58144533    -0.38600
N1756       N  0.73664317  0.14728324  0.98391579    -0.38600
N1757       N  0.75549262  0.33942889  0.98880379    -0.38000
N1758       N  0.74053521  0.14714724  0.57674828    -0.38000
C1759       C  0.71914871  0.70454189  0.14764889     0.80800
N1760       N  0.74820567  0.73788551  0.16290318    -0.77500
C1761       C  0.77629667  0.77169189  0.14802708     0.83300
N1762       N  0.77507068  0.77144652  0.11644375    -0.77400
C1763       C  0.74587603  0.73837790  0.10033667     0.83400
N1764       N  0.71777524  0.70485675  0.11609617    -0.79100
C1765       C  0.72158551  0.71018566  0.41671083     0.80800
N1766       N  0.72017151  0.70950034  0.44824538    -0.77500
C1767       C  0.74989621  0.74123054  0.46510745     0.83300
N1768       N  0.78027639  0.77410710  0.45010415    -0.77400
C1769       C  0.78147569  0.77510352  0.41847059     0.83400
N1770       N  0.75229343  0.74263957  0.40211595    -0.79100
C1771       C  0.74648006  0.97330229  0.14766513     0.80800
N1772       N  0.71565437  0.97492200  0.16270998    -0.77500
C1773       C  0.68638100  0.97863366  0.14679365     0.83300
N1774       N  0.68779020  0.97990435  0.11517803    -0.77400
C1775       C  0.71825692  0.97742228  0.09990037     0.83400
N1776       N  0.74785354  0.97445777  0.11613574    -0.79100
C1777       C  0.74713270  0.96988365  0.41826966     0.80800
N1778       N  0.74808742  0.97032129  0.44985729    -0.77500
C1779       C  0.72058003  0.97681636  0.46592741     0.83300
N1780       N  0.69221062  0.98270452  0.45047962    -0.77400
C1781       C  0.69097352  0.98212907  0.41888976     0.83400
N1782       N  0.71862322  0.97563585  0.40353115    -0.79100
C1783       C  0.98423430  0.73811235  0.14777423     0.80800
N1784       N  0.98440460  0.73869067  0.11612471    -0.77500
C1785       C  0.98343976  0.70744547  0.09971364     0.83300
N1786       N  0.98322181  0.67611904  0.11508847    -0.77400
C1787       C  0.98333576  0.67552530  0.14679685     0.83400
N1788       N  0.98317904  0.70640506  0.16276700    -0.79100
C1789       C  0.98859912  0.74102838  0.41721800     0.80800
N1790       N  0.98957188  0.71058228  0.40151601    -0.77500
C1791       C  0.98803126  0.67872432  0.41673797     0.83300
N1792       N  0.98633403  0.67800201  0.44841142    -0.77400
C1793       C  0.98631665  0.70896599  0.46451617     0.83400
N1794       N  0.98714490  0.74037613  0.44884992    -0.79100
O1795       O  0.88966134  0.50810754  0.24879637    -0.87500
C1796       C  0.60552755  0.59510290  0.32562566     1.12500
O1797       O  0.93987035  0.97385944  0.28310782    -1.35400
O1798       O  0.57442293  0.59624944  0.24313683    -0.89000
O1799       O  0.85798264  0.93902124  0.24690245    -0.89700
O1800       O  0.94006061  0.93047427  0.21602117    -0.78500
O1801       O  0.98266920  0.55363147  0.25230788    -1.00600
C1802       C  0.55904793  0.97585305  0.22633518     1.22500
O1803       O  0.98347771  0.93191133  0.28321851    -1.35500
Mn1804     Mn  0.98321473  0.97502407  0.31734610     1.82100
O1805       O  0.52672499  0.97518341  0.21721990    -0.77600
O1806       O  0.61031423  0.56454135  0.24812842    -0.87000
C1807       C  0.55821357  0.97520485  0.34157895     1.13600
C1808       C  0.60361328  0.59028046  0.23517529     1.08300
O1809       O  0.93925533  0.93267367  0.34897136    -0.78500
O1810       O  0.52689517  0.51737816  0.28149020    -1.32200
O1811       O  0.90264993  0.89451202  0.31197207    -0.97700
C1812       C  0.98432190  0.85450463  0.23779206     1.07100
Mn1813     Mn  0.58498859  0.52089229  0.28223401     1.48600
O1814       O  0.95040752  0.84767610  0.24988542    -0.86900
Mn1815     Mn  0.88202385  0.91972281  0.28240494     1.49600
O1816       O  0.89407886  0.50877109  0.31916265    -0.90800
C1817       C  0.98230690  0.54858505  0.22435749     1.20300
C1818       C  0.86326255  0.97158257  0.32945015     1.12300
Mn1819     Mn  0.98259571  0.97397406  0.24874757     1.81000
O1820       O  0.56332659  0.97505982  0.31312678    -0.96000
Mn1821     Mn  0.93747313  0.52898469  0.28246143     1.49300
C1822       C  0.86131245  0.97245572  0.23867473     1.08800
Mn1823     Mn  0.53791557  0.92806912  0.28264019     1.49900
C1824       C  0.98479052  0.85571549  0.32912733     1.11700
O1825       O  0.90421777  0.89395110  0.25332584    -1.01800
O1826       O  0.60901911  0.56499237  0.31726737    -0.91400
C1827       C  0.90901190  0.89828797  0.22488898     1.23000
O1828       O  0.56382642  0.97509036  0.25434395    -1.02200
O1829       O  0.57878533  0.60195156  0.31318289    -0.89600
O1830       O  0.51841249  0.88295418  0.31714294    -0.89200
O1831       O  0.85651511  0.93910559  0.31627521    -0.89200
Mn1832     Mn  0.53110352  0.57497205  0.27979802     1.47900
O1833       O  0.52634483  0.97548341  0.35022525    -0.77700
C1834       C  0.90719402  0.90083708  0.33996661     1.16100
O1835       O  0.98271219  0.51721445  0.21524006    -0.76400
O1836       O  0.98571219  0.52023457  0.34739749    -0.76000
Mn1837     Mn  0.92994715  0.87352930  0.28412575     1.51100
O1838       O  0.51860415  0.88430230  0.24704900    -0.88400
O1839       O  0.98610666  0.55590209  0.30995345    -0.95900
O1840       O  0.95011896  0.85048566  0.31995587    -0.90900
C1841       C  0.98689680  0.55205168  0.33794844     1.13900
C1842       C  0.98662617  0.58350083  0.35914499    -0.04700
C1843       C  0.00933515  0.59538724  0.38752133    -0.01800
C1844       C  0.00976255  0.62619020  0.40661768     0.03200
C1845       C  0.98619203  0.64440178  0.39819881    -0.04700
C1846       C  0.96254088  0.63160230  0.37036978    -0.03800
C1847       C  0.96450206  0.60325986  0.35027793     0.03200
C1848       C  0.53547294  0.57890043  0.39577503     0.37800
C1849       C  0.93521709  0.64705361  0.36229142     0.37800
C1850       C  0.94448706  0.59614301  0.31996773     0.36200
C1851       C  0.53638471  0.64068317  0.43396572     0.36200
N1852       N  0.92878075  0.59174458  0.29583324    -0.38600
N1853       N  0.55790971  0.65242695  0.45562953    -0.38600
N1854       N  0.91343231  0.65924126  0.35574792    -0.38000
N1855       N  0.55727779  0.56677211  0.40231611    -0.38000
C1856       C  0.98807329  0.77383999  0.39911952    -0.04700
C1857       C  0.52489547  0.80462328  0.38626516    -0.01800
C1858       C  0.52406711  0.83102665  0.36363529     0.03200
C1859       C  0.98600168  0.82836202  0.35437059    -0.04700
C1860       C  0.94894770  0.79781935  0.36881362    -0.01800
C1861       C  0.95021207  0.77071137  0.39065656     0.03200
C1862       C  0.56394236  0.80805384  0.39557224     0.37800
C1863       C  0.90863378  0.79178509  0.36032482     0.37800
C1864       C  0.91207167  0.73794554  0.40333165     0.36200
C1865       C  0.56268427  0.85807203  0.34838415     0.36200
N1866       N  0.88166747  0.71165738  0.41323889    -0.38600
N1867       N  0.59401018  0.87825701  0.33629575    -0.38600
N1868       N  0.87615550  0.78606408  0.35352864    -0.38000
N1869       N  0.59501095  0.81080891  0.40303362    -0.38000
C1870       C  0.98555047  0.64275713  0.16454184    -0.04700
C1871       C  0.96262959  0.60128047  0.15536162    -0.01800
C1872       C  0.96266451  0.57068743  0.17414882     0.03200
C1873       C  0.98431633  0.58081839  0.20296494    -0.04700
C1874       C  0.50678107  0.62258195  0.21220245    -0.01800
C1875       C  0.50922276  0.65308289  0.19239767     0.03200
C1876       C  0.93713776  0.58949378  0.12745334     0.37800
C1877       C  0.52677709  0.63527422  0.24253292     0.37800
C1878       C  0.53727722  0.69549743  0.20065707     0.36200
C1879       C  0.93702668  0.52840861  0.16509952     0.36200
N1880       N  0.55968210  0.72917943  0.20724781    -0.38600
N1881       N  0.91582672  0.49476478  0.15789634    -0.38600
N1882       N  0.54275112  0.64673454  0.26659443    -0.38000
N1883       N  0.91661068  0.57967071  0.10524062    -0.38000
C1884       C  0.98383714  0.77086001  0.16656198    -0.04700
C1885       C  0.52109026  0.80633422  0.17478172    -0.01800
C1886       C  0.52155103  0.83362182  0.19765192     0.03200
C1887       C  0.98405584  0.82629422  0.21228806    -0.04700
C1888       C  0.94657643  0.79063906  0.20291151    -0.01800
C1889       C  0.94669912  0.76367841  0.18014131     0.03200
C1890       C  0.55940436  0.81400870  0.16037548     0.37800
C1891       C  0.90753409  0.77874871  0.21785845     0.37800
C1892       C  0.90828863  0.72740964  0.17111954     0.36200
C1893       C  0.56149963  0.86750597  0.20698318     0.36200
N1894       N  0.87773698  0.69854384  0.16390994    -0.38600
N1895       N  0.59367778  0.89391055  0.21452775    -0.38600
N1896       N  0.87574435  0.76716232  0.22946276    -0.38000
N1897       N  0.59012917  0.82049054  0.14902336    -0.38000
C1898       C  0.98543848  0.70851488  0.49908490    -0.04700
C1899       C  0.02099707  0.73583491  0.01636339    -0.01800
C1900       C  0.02019595  0.73563604  0.04926465     0.03200
C1901       C  0.98384984  0.70807518  0.06512403    -0.04700
C1902       C  0.94819072  0.68082140  0.04785113    -0.01800
C1903       C  0.94907292  0.68085190  0.01491858     0.03200
C1904       C  0.05886642  0.76329700  0.50018306     0.37800
C1905       C  0.91021105  0.65360590  0.06394495     0.37800
C1906       C  0.91243093  0.65275298  0.99725250     0.36200
C1907       C  0.05713976  0.76311226  0.06685652     0.36200
N1908       N  0.88338963  0.63009036  0.48313424    -0.38600
N1909       N  0.58661398  0.78534200  0.08095256    -0.38600
N1910       N  0.87976246  0.63206999  0.07669591    -0.38000
N1911       N  0.08910675  0.78492753  0.48724610    -0.38000
C1912       C  0.77664856  0.96403443  0.39880314    -0.04700
C1913       C  0.81934077  0.98361234  0.40619203    -0.01800
C1914       C  0.84757062  0.98410336  0.38414916     0.03200
C1915       C  0.83381877  0.96793530  0.35394038    -0.04700
C1916       C  0.79095558  0.94611112  0.34730600    -0.01800
C1917       C  0.76252517  0.94264085  0.37010767     0.03200
C1918       C  0.83471052  0.00445526  0.43583577     0.37800
C1919       C  0.77583709  0.92828405  0.31660318     0.37800
C1920       C  0.71853001  0.91671700  0.36389338     0.36200
C1921       C  0.89006504  0.99867147  0.39333150     0.36200
N1922       N  0.68351457  0.89606263  0.35896147    -0.38600
N1923       N  0.92484644  0.51521619  0.39997512    -0.38600
N1924       N  0.76357671  0.91412284  0.29217435    -0.38000
N1925       N  0.84597467  0.52416208  0.45695096    -0.38000
C1926       C  0.59096177  0.97669542  0.36281011    -0.04700
C1927       C  0.59019495  0.98051868  0.39562893    -0.01800
C1928       C  0.62250680  0.98249512  0.41441605     0.03200
C1929       C  0.65815790  0.98491058  0.40042033    -0.04700
C1930       C  0.66048002  0.98594251  0.36741628    -0.01800
C1931       C  0.62561463  0.97657912  0.34936178     0.03200
C1932       C  0.55596231  0.98141734  0.41055314     0.37800
C1933       C  0.69890258  0.99790211  0.35096768     0.37800
C1934       C  0.62540544  0.96383543  0.31725527     0.36200
C1935       C  0.61842162  0.98215461  0.44802250     0.36200
N1936       N  0.62506177  0.95224837  0.29217664    -0.38600
N1937       N  0.61474199  0.98172819  0.47482853    -0.38600
N1938       N  0.72915671  0.00762154  0.33745992    -0.38000
N1939       N  0.52906805  0.98239317  0.42298066    -0.38000
C1940       C  0.83334824  0.97244035  0.21311611    -0.04700
C1941       C  0.84002663  0.00956260  0.19981869    -0.01800
C1942       C  0.81372656  0.00916009  0.17600235     0.03200
C1943       C  0.77913572  0.97240273  0.16632712    -0.04700
C1944       C  0.77202717  0.93555916  0.17893161    -0.01800
C1945       C  0.79878818  0.93527964  0.20205552     0.03200
C1946       C  0.87182253  0.54868102  0.20709205     0.37800
C1947       C  0.73597230  0.89782636  0.16872148     0.37800
C1948       C  0.78794630  0.89647405  0.21573569     0.36200
C1949       C  0.81863399  0.54337347  0.15813405     0.36200
N1950       N  0.77841366  0.86534251  0.22671678    -0.38600
N1951       N  0.82392802  0.57259409  0.14590950    -0.38600
N1952       N  0.70717683  0.86787458  0.16057275    -0.38000
N1953       N  0.89688475  0.58084842  0.21529964    -0.38000
C1954       C  0.65400179  0.98195895  0.16457480    -0.04700
C1955       C  0.61194953  0.96056197  0.15521087    -0.01800
C1956       C  0.58106365  0.95932549  0.17496019     0.03200
C1957       C  0.59177119  0.97918831  0.20441553    -0.04700
C1958       C  0.63424996  0.00111718  0.21332880    -0.01800
C1959       C  0.66496429  0.00388349  0.19301524     0.03200
C1960       C  0.59994817  0.93794341  0.12602184     0.37800
C1961       C  0.64915792  0.51952729  0.24042577     0.37800
C1962       C  0.70773768  0.53035539  0.19555915     0.36200
C1963       C  0.53796133  0.93368784  0.16627453     0.36200
N1964       N  0.74238492  0.55274062  0.20067749    -0.38600
N1965       N  0.00373680  0.91245588  0.15930371    -0.38600
N1966       N  0.66276224  0.53523298  0.26421518    -0.38000
N1967       N  0.59033048  0.91998522  0.10269075    -0.38000
C1968       C  0.72095686  0.97698282  0.50016355    -0.04700
C1969       C  0.70504776  0.94043239  0.01635926    -0.01800
C1970       C  0.70339362  0.94043326  0.04912308     0.03200
C1971       C  0.71900903  0.97746502  0.06565256    -0.04700
C1972       C  0.73108406  0.50618314  0.04772181    -0.01800
C1973       C  0.73193413  0.50671969  0.01495060     0.03200
C1974       C  0.69024645  0.90213080  0.49937233     0.37800
C1975       C  0.74707265  0.54391208  0.06523798     0.37800
C1976       C  0.74847274  0.54495601  0.99858440     0.36200
C1977       C  0.68502557  0.90237987  0.06589059     0.36200
N1978       N  0.76174678  0.57555214  0.48532811    -0.38600
N1979       N  0.67022620  0.87213601  0.07940740    -0.38600
N1980       N  0.75994644  0.57393879  0.07931048    -0.38000
N1981       N  0.67861268  0.87192278  0.48576198    -0.38000
C1982       C  0.81309067  0.81148883  0.40117274    -0.04700
C1983       C  0.85476804  0.83432216  0.41135259    -0.01800
C1984       C  0.88526804  0.86424680  0.39185867     0.03200
C1985       C  0.87457465  0.87184194  0.36193301    -0.04700
C1986       C  0.83223487  0.85002663  0.35260266    -0.01800
C1987       C  0.80183143  0.82159347  0.37257442     0.03200
C1988       C  0.86694310  0.82626875  0.44138896     0.37800
C1989       C  0.81864295  0.85516624  0.32214122     0.37800
C1990       C  0.75846324  0.80330954  0.36361572     0.36200
C1991       C  0.92822119  0.88401576  0.40155042     0.36200
N1992       N  0.72405333  0.78888224  0.35632980    -0.38600
N1993       N  0.96244280  0.89896268  0.40936459    -0.38600
N1994       N  0.80592739  0.85776248  0.29816884    -0.38000
N1995       N  0.87675297  0.82020841  0.46544180    -0.38000
C1996       C  0.63414900  0.62344354  0.35080686    -0.04700
C1997       C  0.62828324  0.65477245  0.36386861    -0.01800
C1998       C  0.65494014  0.68068988  0.38757066     0.03200
C1999       C  0.68884666  0.67730659  0.39763483    -0.04700
C2000       C  0.69521532  0.64674986  0.38518644    -0.01800
C2001       C  0.66851454  0.62019588  0.36178661     0.03200
C2002       C  0.59673401  0.66282565  0.35208010     0.37800
C2003       C  0.73042720  0.64363536  0.39586100     0.37800
C2004       C  0.67946694  0.59226148  0.34756163     0.36200
C2005       C  0.64827563  0.71201066  0.40109335     0.36200
N2006       N  0.68917981  0.57083518  0.33600568    -0.38600
N2007       N  0.64288054  0.73686972  0.41191245    -0.38600
N2008       N  0.75847800  0.64120809  0.40439492    -0.38000
N2009       N  0.57220493  0.67010879  0.34259809    -0.38000
C2010       C  0.87662193  0.86625615  0.20399765    -0.04700
C2011       C  0.87676539  0.87034794  0.17126142    -0.01800
C2012       C  0.84416631  0.84020888  0.15269041     0.03200
C2013       C  0.80945279  0.80661957  0.16679703    -0.04700
C2014       C  0.80822126  0.80485609  0.19987650    -0.01800
C2015       C  0.84293114  0.83144695  0.21769574     0.03200
C2016       C  0.91097882  0.90467925  0.15613679     0.37800
C2017       C  0.77093279  0.77702420  0.21679358     0.37800
C2018       C  0.84393338  0.82037584  0.25000086     0.36200
C2019       C  0.84703199  0.84482086  0.11912195     0.36200
N2020       N  0.84485162  0.81032117  0.27525108    -0.38600
N2021       N  0.85008077  0.84915316  0.09238827    -0.38600
N2022       N  0.74167150  0.75547125  0.23079848    -0.38000
N2023       N  0.93805515  0.93170833  0.14355744    -0.38000
C2024       C  0.68982865  0.66898155  0.16647315    -0.04700
C2025       C  0.70419225  0.66077040  0.19454260    -0.01800
C2026       C  0.67592146  0.63613380  0.21728940     0.03200
C2027       C  0.63302980  0.61557539  0.21077352    -0.04700
C2028       C  0.61917780  0.61817786  0.18074328    -0.01800
C2029       C  0.64714942  0.64625464  0.15910539     0.03200
C2030       C  0.74818812  0.67734048  0.20007083     0.37800
C2031       C  0.57704004  0.58989704  0.17120438     0.37800
C2032       C  0.63151316  0.65239792  0.12994490     0.36200
C2033       C  0.69123425  0.63348239  0.24783785     0.36200
N2034       N  0.61877895  0.65720936  0.10673276    -0.38600
N2035       N  0.70369420  0.63177088  0.27216972    -0.38600
N2036       N  0.54408047  0.56647202  0.16266006    -0.38000
N2037       N  0.78319135  0.69038793  0.20443715    -0.38000
C2038       C  0.74576189  0.73860031  0.06573239    -0.04700
C2039       C  0.74066654  0.70444687  0.04864138    -0.01800
C2040       C  0.74161400  0.70514675  0.01581003     0.03200
C2041       C  0.74858989  0.74035182  0.49971234    -0.04700
C2042       C  0.75393202  0.77455949  0.01681199    -0.01800
C2043       C  0.75185722  0.77346265  0.04959490     0.03200
C2044       C  0.73587275  0.66888998  0.06472021     0.37800
C2045       C  0.76062936  0.81082949  0.50079636     0.37800
C2046       C  0.75435158  0.80779972  0.06652602     0.36200
C2047       C  0.73657131  0.66985254  0.99875083     0.36200
N2048       N  0.75632682  0.83521442  0.07994136    -0.38600
N2049       N  0.73166908  0.64134258  0.48520516    -0.38600
N2050       N  0.76606725  0.83979640  0.48808195    -0.38000
N2051       N  0.73197344  0.64057280  0.07757520    -0.38000
C2052       C  0.71920430  0.70449004  0.64767192     0.80800
N2053       N  0.74830694  0.73781537  0.66291552    -0.77500
C2054       C  0.77639080  0.77161781  0.64803232     0.83300
N2055       N  0.77511590  0.77138654  0.61645034    -0.77400
C2056       C  0.74587938  0.73833528  0.60035024     0.83400
N2057       N  0.71778055  0.70482260  0.61612094    -0.79100
C2058       C  0.72165861  0.71015615  0.91672255     0.80800
N2059       N  0.72024480  0.70947441  0.94825694    -0.77500
C2060       C  0.74994739  0.74122601  0.96511372     0.83300
N2061       N  0.78030420  0.77411830  0.95011040    -0.77400
C2062       C  0.78150960  0.77510676  0.91847690     0.83400
N2063       N  0.75234822  0.74262352  0.90212532    -0.79100
C2064       C  0.74640527  0.97319452  0.64768650     0.80800
N2065       N  0.71559791  0.97486168  0.66271750    -0.77500
C2066       C  0.68631693  0.97854228  0.64678513     0.83300
N2067       N  0.68770247  0.97973575  0.61516726    -0.77400
C2068       C  0.71814665  0.97719629  0.59990392     0.83400
N2069       N  0.74774890  0.97426067  0.61615556    -0.79100
C2070       C  0.74727300  0.97015845  0.91828452     0.80800
N2071       N  0.74827447  0.97069661  0.94987146    -0.77500
C2072       C  0.72080354  0.97725854  0.96592796     0.83300
N2073       N  0.69240448  0.98309032  0.95046828    -0.77400
C2074       C  0.69111964  0.98241430  0.91887740     0.83400
N2075       N  0.71874448  0.97586927  0.90353345    -0.79100
C2076       C  0.98430994  0.73814749  0.64777326     0.80800
N2077       N  0.98447032  0.73872583  0.61612272    -0.77500
C2078       C  0.98353620  0.70749701  0.59970758     0.83300
N2079       N  0.98335624  0.67618760  0.61507957    -0.77400
C2080       C  0.98348292  0.67559442  0.64678759     0.83400
N2081       N  0.98329830  0.70645758  0.66276232    -0.79100
C2082       C  0.98866769  0.74108717  0.91722879     0.80800
N2083       N  0.98962793  0.71063060  0.90153096    -0.77500
C2084       C  0.98804885  0.67875604  0.91675616     0.83300
N2085       N  0.98632531  0.67802770  0.94842794    -0.77400
C2086       C  0.98631969  0.70899902  0.96452883     0.83400
N2087       N  0.98718314  0.74042465  0.94886038    -0.79100
O2088       O  0.88974841  0.50822130  0.74877475    -0.87500
C2089       C  0.60554050  0.59506817  0.82566513     1.12500
O2090       O  0.93987152  0.97388168  0.78311243    -1.35400
O2091       O  0.57446522  0.59624495  0.74318261    -0.89000
O2092       O  0.85796843  0.93902461  0.74693184    -0.89700
O2093       O  0.94006438  0.93050280  0.71602271    -0.78500
O2094       O  0.98275219  0.55369918  0.75232127    -1.00600
C2095       C  0.55900973  0.97581526  0.72632143     1.22500
O2096       O  0.98349038  0.93194260  0.78321326    -1.35500
Mn2097     Mn  0.98322581  0.97505463  0.81734456     1.82100
O2098       O  0.52668543  0.97514609  0.71721126    -0.77600
O2099       O  0.61032153  0.56450006  0.74816074    -0.87000
C2100       C  0.55822058  0.97521334  0.84156837     1.13600
C2101       C  0.60364193  0.59025779  0.73521549     1.08300
O2102       O  0.93927584  0.93270148  0.84897575    -0.78500
O2103       O  0.52689091  0.51736034  0.78151940    -1.32200
O2104       O  0.90267447  0.89453506  0.81197848    -0.97700
C2105       C  0.98433676  0.85452725  0.73778546     1.07100
Mn2106     Mn  0.58497410  0.52085220  0.78226903     1.48600
O2107       O  0.95042036  0.84769892  0.74987605    -0.86900
Mn2108     Mn  0.88203031  0.91973723  0.78242116     1.49600
O2109       O  0.89411643  0.50887029  0.81914262    -0.90800
C2110       C  0.98239754  0.54864876  0.72437092     1.20300
C2111       C  0.86326876  0.97159032  0.82947286     1.12300
Mn2112     Mn  0.98259530  0.97400575  0.74874463     1.81000
O2113       O  0.56332355  0.97505315  0.81311512    -0.96000
Mn2114     Mn  0.93753457  0.52906363  0.78245920     1.49300
C2115       C  0.86128888  0.97245234  0.73869871     1.08800
Mn2116     Mn  0.53790562  0.92805447  0.78263676     1.49900
C2117       C  0.98482586  0.85574792  0.82911932     1.11700
O2118       O  0.90422707  0.89397627  0.75333015    -1.01800
O2119       O  0.60902385  0.56495546  0.81729950    -0.91400
C2120       C  0.90902549  0.89831048  0.72489240     1.23000
O2121       O  0.56379792  0.97506144  0.75432943    -1.02200
O2122       O  0.57879725  0.60192334  0.81323093    -0.89600
O2123       O  0.51842203  0.88295693  0.81714661    -0.89200
O2124       O  0.85651858  0.93910799  0.81630394    -0.89200
Mn2125     Mn  0.53112567  0.57496740  0.77983196     1.47900
O2126       O  0.52635092  0.97548765  0.85021725    -0.77700
C2127       C  0.90721798  0.90085988  0.83997294     1.16100
O2128       O  0.98276543  0.51725754  0.71525757    -0.76400
O2129       O  0.98571458  0.52025415  0.84741229    -0.76000
Mn2130     Mn  0.92996635  0.87355416  0.78412401     1.51100
O2131       O  0.51859159  0.88427795  0.74705521    -0.88400
O2132       O  0.98615119  0.55594412  0.80997082    -0.95900
O2133       O  0.95014905  0.85050746  0.81994881    -0.90900
C2134       C  0.98691790  0.55208122  0.83796588     1.13900
C2135       C  0.98663960  0.58352670  0.85916462    -0.04700
C2136       C  0.00929529  0.59536832  0.88756548    -0.01800
C2137       C  0.00971129  0.62616143  0.90666786     0.03200
C2138       C  0.98619498  0.64442158  0.89822235    -0.04700
C2139       C  0.96258215  0.63165470  0.87037503    -0.03800
C2140       C  0.96455263  0.60331816  0.85028170     0.03200
C2141       C  0.53544305  0.57885974  0.89580669     0.37800
C2142       C  0.93527747  0.64712431  0.86228512     0.37800
C2143       C  0.94458792  0.59624261  0.81995431     0.36200
C2144       C  0.53637947  0.64065628  0.93399414     0.36200
N2145       N  0.92892275  0.59187672  0.79580628    -0.38600
N2146       N  0.55789666  0.65238841  0.95566262    -0.38600
N2147       N  0.91350520  0.65932502  0.85573694    -0.38000
N2148       N  0.55723222  0.56671509  0.90235332    -0.38000
C2149       C  0.98814818  0.77390095  0.89912466    -0.04700
C2150       C  0.52494774  0.80460526  0.88622120    -0.01800
C2151       C  0.52410219  0.83099941  0.86359112     0.03200
C2152       C  0.98605193  0.82840053  0.85436259    -0.04700
C2153       C  0.94901236  0.79789274  0.86884369    -0.01800
C2154       C  0.95028913  0.77080319  0.89069939     0.03200
C2155       C  0.56399565  0.80800236  0.89547926     0.37800
C2156       C  0.90869623  0.79186877  0.86037786     0.37800
C2157       C  0.91215962  0.73808830  0.90343104     0.36200
C2158       C  0.56269626  0.85800168  0.84829282     0.36200
N2159       N  0.88176454  0.71184273  0.91338717    -0.38600
N2160       N  0.59400070  0.87815393  0.83616603    -0.38600
N2161       N  0.87621403  0.78614944  0.85359754    -0.38000
N2162       N  0.59506525  0.81073018  0.90290043    -0.38000
C2163       C  0.98571236  0.64283067  0.66452762    -0.04700
C2164       C  0.96280425  0.60135542  0.65534230    -0.01800
C2165       C  0.96281086  0.57076029  0.67414311     0.03200
C2166       C  0.98443908  0.58088860  0.70296931    -0.04700
C2167       C  0.50686470  0.62260539  0.71220049    -0.01800
C2168       C  0.50932187  0.65310504  0.69238490     0.03200
C2169       C  0.93736373  0.58957004  0.62740724     0.37800
C2170       C  0.52686445  0.63530351  0.74252909     0.37800
C2171       C  0.53740464  0.69552028  0.70062416     0.36200
C2172       C  0.93716659  0.52848209  0.66509400     0.36200
N2173       N  0.55983527  0.72920348  0.70719574    -0.38600
N2174       N  0.91596105  0.49483968  0.65789000    -0.38600
N2175       N  0.54284280  0.64676883  0.76658875    -0.38000
N2176       N  0.91688214  0.57974178  0.60517052    -0.38000
C2177       C  0.98388489  0.77087955  0.66656671    -0.04700
C2178       C  0.52110039  0.80633829  0.67477753    -0.01800
C2179       C  0.52155269  0.83361660  0.69765219     0.03200
C2180       C  0.98407879  0.82631167  0.71228741    -0.04700
C2181       C  0.94661235  0.79062566  0.70293585    -0.01800
C2182       C  0.94674799  0.76365926  0.68017523     0.03200
C2183       C  0.55941359  0.81404413  0.66035080     0.37800
C2184       C  0.90757571  0.77871267  0.71790140     0.37800
C2185       C  0.90835444  0.72734536  0.67119528     0.36200
C2186       C  0.56149789  0.86750415  0.70698602     0.36200
N2187       N  0.87781611  0.69844182  0.66402148    -0.38600
N2188       N  0.59367398  0.89390950  0.71453349    -0.38600
N2189       N  0.87579245  0.76711148  0.72952088    -0.38000
N2190       N  0.59013741  0.82055404  0.64898025    -0.38000
C2191       C  0.98541271  0.70853302  0.99909588    -0.04700
C2192       C  0.02100015  0.73590412  0.51633579    -0.01800
C2193       C  0.02022357  0.73572621  0.54923795     0.03200
C2194       C  0.98391849  0.70811329  0.56511601    -0.04700
C2195       C  0.94827707  0.68078281  0.54785904    -0.01800
C2196       C  0.94914169  0.68077887  0.51492604     0.03200
C2197       C  0.05890826  0.76315298  0.00022911     0.37800
C2198       C  0.91032531  0.65353052  0.56396865     0.37800
C2199       C  0.91252132  0.65259158  0.49727862     0.36200
C2200       C  0.05715484  0.76327757  0.56681048     0.36200
N2201       N  0.88328164  0.63032328  0.98309292    -0.38600
N2202       N  0.58661381  0.78540303  0.58091743    -0.38600
N2203       N  0.87989584  0.63196818  0.57673071    -0.38000
N2204       N  0.08918595  0.78472096  0.98730836    -0.38000
C2205       C  0.77674167  0.96421557  0.89883321    -0.04700
C2206       C  0.81943487  0.98375275  0.90621004    -0.01800
C2207       C  0.84763037  0.98417163  0.88416919     0.03200
C2208       C  0.83384578  0.96796169  0.85397508    -0.04700
C2209       C  0.79097646  0.94614736  0.84736404    -0.01800
C2210       C  0.76257674  0.94275708  0.87016545     0.03200
C2211       C  0.83484159  0.00461899  0.93584130     0.37800
C2212       C  0.77582175  0.92825218  0.81668447     0.37800
C2213       C  0.71857203  0.91684570  0.86398098     0.36200
C2214       C  0.89012177  0.99870784  0.89334160     0.36200
N2215       N  0.68354929  0.89620093  0.85907215    -0.38600
N2216       N  0.92484494  0.51526962  0.89998693    -0.38600
N2217       N  0.76353256  0.91403614  0.79227409    -0.38000
N2218       N  0.84595659  0.52429501  0.95691029    -0.38000
C2219       C  0.59098697  0.97673882  0.86279833    -0.04700
C2220       C  0.59026078  0.98064418  0.89561203    -0.01800
C2221       C  0.62261583  0.98270812  0.91439633     0.03200
C2222       C  0.65825555  0.98510198  0.90039763    -0.04700
C2223       C  0.66051778  0.98601123  0.86738942    -0.01800
C2224       C  0.62562379  0.97659240  0.84934991     0.03200
C2225       C  0.55602415  0.98153608  0.91053582     0.37800
C2226       C  0.69891197  0.99791285  0.85091745     0.37800
C2227       C  0.62538263  0.96379832  0.81725345     0.36200
C2228       C  0.61858605  0.98247995  0.94800418     0.36200
N2229       N  0.62501934  0.95218797  0.79217968    -0.38600
N2230       N  0.61494990  0.98214373  0.97481126    -0.38600
N2231       N  0.72914228  0.00758541  0.83738972    -0.38000
N2232       N  0.52912406  0.98250242  0.92296234    -0.38000
C2233       C  0.83330482  0.97241554  0.71314850    -0.04700
C2234       C  0.83994233  0.00952872  0.69986217    -0.01800
C2235       C  0.81362921  0.00910380  0.67604773     0.03200
C2236       C  0.77906807  0.97232983  0.66636124    -0.04700
C2237       C  0.77199305  0.93549618  0.67896092    -0.01800
C2238       C  0.79876664  0.93524003  0.70208362     0.03200
C2239       C  0.87196152  0.54881462  0.70704847     0.37800
C2240       C  0.73595446  0.89774887  0.66875208     0.37800
C2241       C  0.78796227  0.89643827  0.71575330     0.36200
C2242       C  0.81876729  0.54353852  0.65810547     0.36200
N2243       N  0.77846028  0.86530834  0.72672428    -0.38600
N2244       N  0.82407159  0.57276509  0.64588488    -0.38600
N2245       N  0.70717042  0.86778573  0.66060649    -0.38000
N2246       N  0.89704301  0.58097804  0.71524787    -0.38000
C2247       C  0.65394534  0.98189794  0.66455288    -0.04700
C2248       C  0.61188909  0.96049007  0.65519826    -0.01800
C2249       C  0.58100935  0.95926598  0.67494819     0.03200
C2250       C  0.59172558  0.97914434  0.70439716    -0.04700
C2251       C  0.63420653  0.00107881  0.71330251    -0.01800
C2252       C  0.66491532  0.00384390  0.69298406     0.03200
C2253       C  0.59987565  0.93784033  0.62602337     0.37800
C2254       C  0.64912731  0.51946050  0.74049557     0.37800
C2255       C  0.70772758  0.53034215  0.69563649     0.36200
C2256       C  0.53790443  0.93361348  0.66627610     0.36200
N2257       N  0.74237146  0.55272931  0.70076511    -0.38600
N2258       N  0.00371312  0.91248924  0.65928623    -0.38600
N2259       N  0.66272462  0.53515587  0.76428924    -0.38000
N2260       N  0.59024629  0.91985470  0.60270444    -0.38000
C2261       C  0.72114123  0.97738180  0.00016282    -0.04700
C2262       C  0.70515511  0.94009068  0.51640240    -0.01800
C2263       C  0.70354001  0.94014192  0.54916866     0.03200
C2264       C  0.71888480  0.97717389  0.56565538    -0.04700
C2265       C  0.73118405  0.50644975  0.54771499    -0.01800
C2266       C  0.73203035  0.50696950  0.51494203     0.03200
C2267       C  0.68991349  0.90247101  0.99928515     0.37800
C2268       C  0.74718827  0.54418734  0.56522153     0.37800
C2269       C  0.74855283  0.54519499  0.49856250     0.36200
C2270       C  0.68547132  0.90213347  0.56598214     0.36200
N2271       N  0.76168774  0.57532083  0.98535828    -0.38600
N2272       N  0.67091255  0.87192448  0.57953554    -0.38600
N2273       N  0.76007418  0.57422263  0.57928445    -0.38000
N2274       N  0.67810923  0.87226639  0.98563340    -0.38000
C2275       C  0.81311181  0.81150059  0.90117625    -0.04700
C2276       C  0.85477745  0.83438449  0.91137677    -0.01800
C2277       C  0.88527858  0.86430345  0.89187979     0.03200
C2278       C  0.87459469  0.87186552  0.86193941    -0.04700
C2279       C  0.83226029  0.85001979  0.85259546    -0.01800
C2280       C  0.80185748  0.82156775  0.87255887     0.03200
C2281       C  0.86694157  0.82639724  0.94144236     0.37800
C2282       C  0.81867417  0.85515510  0.82213021     0.37800
C2283       C  0.75849324  0.80322551  0.86357125     0.36200
C2284       C  0.92822706  0.88409966  0.90158696     0.36200
N2285       N  0.72408598  0.78874805  0.85626307    -0.38600
N2286       N  0.96244534  0.89906572  0.90941370    -0.38600
N2287       N  0.80596597  0.85775223  0.79815488    -0.38000
N2288       N  0.87674270  0.82039468  0.96551976    -0.38000
C2289       C  0.63417836  0.62340579  0.85084159    -0.04700
C2290       C  0.62830979  0.65472072  0.86392764    -0.01800
C2291       C  0.65497865  0.68063187  0.88762723     0.03200
C2292       C  0.68891542  0.67727422  0.89765068    -0.04700
C2293       C  0.69529634  0.64674008  0.88517106    -0.01800
C2294       C  0.66856820  0.62017535  0.86178711     0.03200
C2295       C  0.59675161  0.66277380  0.85216071     0.37800
C2296       C  0.73054661  0.64366019  0.89579737     0.37800
C2297       C  0.67951467  0.59224772  0.84754204     0.36200
C2298       C  0.64829598  0.71192254  0.90118777     0.36200
N2299       N  0.68922292  0.57082597  0.83597173    -0.38600
N2300       N  0.64288565  0.73675593  0.91203903    -0.38600
N2301       N  0.75863002  0.64126350  0.90429209    -0.38000
N2302       N  0.57221924  0.67006109  0.84269288    -0.38000
C2303       C  0.87666673  0.86625302  0.70399975    -0.04700
C2304       C  0.87683164  0.87031547  0.67125917    -0.01800
C2305       C  0.84428566  0.84011745  0.65268518     0.03200
C2306       C  0.80955666  0.80654620  0.66679485    -0.04700
C2307       C  0.80830166  0.80481540  0.69987560    -0.01800
C2308       C  0.84299525  0.83142997  0.71769773     0.03200
C2309       C  0.91100423  0.90468684  0.65613649     0.37800
C2310       C  0.77100971  0.77698947  0.71679123     0.37800
C2311       C  0.84400089  0.82037310  0.75000624     0.36200
C2312       C  0.84724230  0.84462837  0.61911022     0.36200
N2313       N  0.84492394  0.81033045  0.77525958    -0.38600
N2314       N  0.85036962  0.84887266  0.59237097    -0.38600
N2315       N  0.74174668  0.75544204  0.73079650    -0.38000
N2316       N  0.93804364  0.93175431  0.64356054    -0.38000
C2317       C  0.68987484  0.66894009  0.66650721    -0.04700
C2318       C  0.70423119  0.66073338  0.69458394    -0.01800
C2319       C  0.67595510  0.63610442  0.71733204     0.03200
C2320       C  0.63306461  0.61554994  0.71081431    -0.04700
C2321       C  0.61921846  0.61814584  0.68078042    -0.01800
C2322       C  0.64719475  0.64621158  0.65913820     0.03200
C2323       C  0.74822442  0.67729247  0.70011768     0.37800
C2324       C  0.57708111  0.58986411  0.67124138     0.37800
C2325       C  0.63156128  0.65233212  0.62996775     0.36200
C2326       C  0.69126177  0.63345004  0.74788212     0.36200
N2327       N  0.61882887  0.65712264  0.60674667    -0.38600
N2328       N  0.70371857  0.63173631  0.77221463    -0.38600
N2329       N  0.54412225  0.56643763  0.66269692    -0.38000
N2330       N  0.78322548  0.69033229  0.70448933    -0.38000
C2331       C  0.74572372  0.73856465  0.56574031    -0.04700
C2332       C  0.74043221  0.70434895  0.54862817    -0.01800
C2333       C  0.74137627  0.70506503  0.51579610     0.03200
C2334       C  0.74863475  0.74035921  0.99971312    -0.04700
C2335       C  0.75408272  0.77461347  0.51683211    -0.01800
C2336       C  0.75199528  0.77349934  0.54961554     0.03200
C2337       C  0.73542740  0.66869472  0.56468160     0.37800
C2338       C  0.76024340  0.81067660  0.00075099     0.37800
C2339       C  0.75465364  0.80790209  0.56655798     0.36200
C2340       C  0.73613672  0.66970199  0.49872514     0.36200
N2341       N  0.75675706  0.83536945  0.57997975    -0.38600
N2342       N  0.73226282  0.64154910  0.98523731    -0.38600
N2343       N  0.76548354  0.83956082  0.98801341    -0.38000
N2344       N  0.73135297  0.64029587  0.57751311    -0.38000
loop_ 
_geom_bond_atom_site_label_1 
_geom_bond_atom_site_label_2 
_geom_bond_distance 
_geom_bond_site_symmetry_2 
_ccdc_geom_bond_type 
C1            N2   1.350       .  A
C1            N6   1.359       .  A
C1          C266   1.494       .  S
N2            C3   1.351       .  A
C3            N4   1.357       .  A
C3          C255   1.511       .  S
N4            C5   1.362       .  A
C5            N6   1.365       .  A
C5          C280   1.487       .  S
C7            N8   1.354       .  A
C7           N12   1.350       .  A
C7          C241   1.476       .  S
N8            C9   1.362       .  A
C9           N10   1.367       .  A
C9          C283   1.490       .  S
N10          C11   1.363       .  A
C11          N12   1.355       .  A
C11         C224   1.500       .  S
C13          N14   1.352       .  A
C13          N18   1.356       .  A
C13         C185   1.478       .  S
N14          C15   1.356       .  A
C15          N16   1.357       .  A
C15         C196   1.491       .  S
N16          C17   1.360       .  A
C17          N18   1.361       .  A
C17         C213   1.472       .  S
C19          N20   1.356       .  A
C19          N24   1.347       .  A
C19         C154   1.485       .  S
N20          C21   1.362       .  A
C21          N22   1.361       .  A
C21         C210   1.470       .  S
N22          C23   1.356       .  A
C23          N24   1.349       .  A
C23         C171   1.507       .  S
C25          N26   1.357       .  A
C25          N30   1.352       .  A
C25         C126   1.485       .  S
N26          C27   1.363       .  A
C27          N28   1.365       .  A
C27         C143   1.484       .  S
N28          C29   1.363       .  A
C29          N30   1.356       .  A
C29         C112   1.505       .  S
C31          N32   1.356       .  A
C31          N36   1.360       .  A
C31          C98   1.488       .  S
N32          C33   1.360       .  A
C33          N34   1.360       .  A
C33          C87   1.500       .  S
N34          C35   1.362       .  A
C35          N36   1.363       .  A
C35         C140   1.483       .  S
O37         Mn63   2.095       .  S
O37         C650   1.270   1_545  A
C38         C238   1.514       .  S
C38          O71   1.272       .  A
C38          O68   1.267       .  A
O39         Mn46   2.169       .  S
O39         Mn57   2.104       .  S
O39         Mn61   2.173       .  S
O39        Mn649   2.124       .  S
O40         Mn74   2.118       .  S
O40          C50   1.271       .  A
O41         Mn57   2.077       .  S
O41          C64   1.267       .  A
O42         Mn61   2.138       .  S
O42          C69   1.255       .  A
O43         Mn63   1.955       .  S
O43       Mn1246   1.954       .  S
O43          C59   1.212       .  S
C44         C199   1.500       .  S
C44          O47   1.257       .  A
C44          O70   1.220       .  S
O45         Mn46   2.199       .  S
O45         Mn79   2.111       .  S
O45         Mn61   2.202       .  S
O45       Mn1237   2.117       .  S
Mn46         O51   2.128       .  S
Mn46       O1247   2.132       .  S
Mn46        O664   2.140       .  S
Mn46       O1810   2.180       .  S
O47       Mn1233   2.113   1_455  S
O48         Mn55   2.074       .  S
O48          C50   1.262       .  A
C49         C168   1.498       .  S
C49          O75   1.253       .  A
C49          O62   1.233       .  A
C50         C269   1.487       .  S
O51          C76   1.258       .  A
O52         Mn55   2.106       .  S
O52         Mn74   2.122       .  S
O52       Mn1804   2.180   1_445  S
O52       Mn1819   2.172   1_445  S
O53         Mn57   1.971       .  S
O53         Mn79   1.978       .  S
O53          C76   1.218       .  S
C54         C129   1.520       .  S
C54          O56   1.274       .  A
C54        O1252   1.269       .  A
Mn55         O68   2.079       .  S
Mn55        O648   2.013   1_545  S
Mn55        O656   1.967   1_545  S
O56         Mn79   2.111       .  S
Mn57         O73   2.063       .  S
Mn57         O67   2.007       .  S
O58         Mn63   2.113       .  S
O58         C646   1.270   1_545  A
C59         C115   1.509       .  S
C59          O77   1.261       .  A
C60         C157   1.481       .  S
C60          O73   1.261       .  A
C60         O644   1.271       .  A
Mn61       O1219   2.113       .  S
Mn61        O663   2.151       .  S
Mn61       O1810   2.169       .  S
O62         Mn65   2.004       .  S
O62        Mn641   2.000       .  S
Mn63        O625   2.118   1_545  S
Mn63         O81   1.957       .  S
C64         C182   1.517       .  S
C64         O623   1.274       .  A
Mn65         O72   2.117       .  S
Mn65         O80   2.088       .  S
Mn65       O1217   2.117   1_455  S
Mn65         O70   1.986       .  S
C66         C101   1.527       .  S
C66          O82   1.270       .  A
C66        O1244   1.274       .  A
O67         Mn79   2.010       .  S
O67          C69   1.234       .  A
C69         C252   1.502       .  S
O70        Mn641   1.973       .  S
O71         Mn74   2.102       .  S
O72        C1238   1.274   1_455  A
Mn74       O1215   1.954   1_455  S
Mn74       O1253   1.960   1_455  S
O75       Mn1218   2.133   1_455  S
C76         C227   1.506       .  S
O77        Mn647   2.150   1_545  S
O78        Mn632   2.146   1_545  S
O78          C83   1.261       .  A
Mn79         O82   2.093       .  S
O80        C1226   1.269   1_455  A
O81       Mn1246   1.960       .  S
O81          C83   1.213       .  S
C83          C84   1.506       .  S
C84          C85   1.417       .  A
C84          C89   1.425       .  A
C85          C86   1.421       .  A
C85        C1262   1.449       .  S
C86          C87   1.418       .  A
C86        C1265   1.450       .  S
C87          C88   1.412       .  A
C88          C89   1.409       .  A
C88          C91   1.455       .  S
C89          C92   1.452       .  S
C90        C1257   1.449       .  S
C90          N97   1.156       .  T
C91          N96   1.157       .  T
C92          N94   1.158       .  T
C93        C1258   1.450       .  S
C93          N95   1.158       .  T
C98         C103   1.406       .  A
C98        C1271   1.403       .  A
C99         C100   1.415       .  A
C99        C1270   1.403   1_455  A
C99         C104   1.454       .  S
C100       C1273   1.430   1_455  A
C100        C107   1.446       .  S
C101        C102   1.433       .  A
C101       C1272   1.430       .  A
C102        C103   1.418       .  A
C102        C105   1.452       .  S
C103        C106   1.453       .  S
C104        N111   1.157       .  T
C105        N110   1.158       .  T
C106        N108   1.157       .  T
C107        N109   1.156       .  T
C112        C113   1.418       .  A
C112       C1289   1.417       .  A
C113        C114   1.422       .  A
C113        C118   1.450       .  S
C114        C115   1.417       .  A
C114        C121   1.448       .  S
C115       C1288   1.424       .  A
C116        C117   1.409       .  A
C116       C1287   1.424   1_455  A
C116        C119   1.454       .  S
C117       C1284   1.417   1_455  A
C117        C120   1.456       .  S
C118        N125   1.158       .  T
C119        N124   1.158       .  T
C120        N122   1.158       .  T
C121        N123   1.156   1_545  T
C126        C131   1.406       .  A
C126       C1299   1.407       .  A
C127        C128   1.417       .  A
C127       C1298   1.407   1_455  A
C127        C132   1.453       .  S
C128       C1301   1.431   1_455  A
C128        C135   1.451       .  S
C129        C130   1.428       .  A
C129       C1300   1.431       .  A
C130        C131   1.413       .  A
C130        C133   1.450       .  S
C131        C134   1.454       .  S
C132        N139   1.158       .  T
C133        N138   1.157       .  T
C134        N136   1.157       .  T
C135        N137   1.158       .  T
C140        C434   1.412       .  A
C140        C438   1.411       .  A
C141        C142   1.413       .  A
C141        C433   1.412   1_554  A
C141        C439   1.451   1_554  S
C142        C143   1.412       .  A
C142        C149   1.450       .  S
C143        C144   1.412       .  A
C144        C145   1.413       .  A
C144        C147   1.451       .  S
C145        C433   1.411   1_554  A
C145        C148   1.451   1_554  S
C146        C434   1.451       .  S
C146        N153   1.157       .  T
C147        N152   1.157       .  T
C148        N443   1.157       .  T
C149       N1323   1.157       .  T
N150        C441   1.157       .  T
N151       C1321   1.157       .  T
C154        C155   1.413       .  A
C154        C159   1.415       .  A
C155        C156   1.413       .  A
C155        C160   1.450       .  S
C156        C157   1.412       .  A
C156        C163   1.446       .  S
C157        C158   1.413       .  A
C158        C159   1.404       .  A
C158        C161   1.454       .  S
C159        C162   1.454       .  S
C160        N753   1.157       .  T
C161        N166   1.157       .  T
C162        N164   1.157       .  T
C163        N751   1.156       .  T
N165        C749   1.156   1_545  T
N167        C746   1.158       .  T
C168        C169   1.415       .  A
C168        C173   1.423       .  A
C169        C170   1.419       .  A
C169        C174   1.450       .  S
C170        C171   1.424       .  A
C170        C177   1.450       .  S
C171        C172   1.421       .  A
C172        C173   1.397       .  A
C172        C175   1.458       .  S
C173        C176   1.458       .  S
C174        N181   1.157       .  T
C175        N180   1.158       .  T
C176        N178   1.158       .  T
C177        N179   1.158       .  T
C182        C183   1.428       .  A
C182        C187   1.433       .  A
C183        C184   1.414       .  A
C183        C774   1.451       .  S
C184        C185   1.406       .  A
C184        C777   1.453       .  S
C185        C186   1.403       .  A
C186        C187   1.412       .  A
C186        C189   1.454       .  S
C187        C190   1.452       .  S
C188        C769   1.451       .  S
C188        N195   1.158       .  T
C189        N194   1.157       .  T
C190        N192   1.157       .  T
C191        C770   1.454       .  S
C191        N193   1.157       .  T
C196        C197   1.415       .  A
C196        C201   1.411       .  A
C197        C198   1.417       .  A
C197        C202   1.451       .  S
C198        C199   1.419       .  A
C198        C205   1.450       .  S
C199        C200   1.422       .  A
C200        C201   1.405       .  A
C200        C789   1.449       .  S
C201        C790   1.456       .  S
C202        N209   1.158       .  T
C203        C786   1.450       .  S
C203        N208   1.157       .  T
C204        C787   1.457       .  S
C204        N206   1.157       .  T
C205       N1379   1.156       .  T
N207       C1377   1.156       .  T
C210        C504   1.410       .  A
C210       C1094   1.410       .  A
C211        C212   1.409       .  A
C211        C503   1.410   1_554  A
C211        C509   1.451   1_554  S
C212        C213   1.411       .  A
C212        C219   1.451       .  S
C213        C800   1.410       .  A
C214        C215   1.407       .  A
C214        C799   1.409   1_545  A
C214        C217   1.450       .  S
C215       C1089   1.410   1_545  A
C215        C218   1.451   1_554  S
C216        C504   1.451       .  S
C216        N223   1.157       .  T
C217        N222   1.157       .  T
C218        N513   1.157       .  T
C219        N221   1.157       .  T
N220        C511   1.157       .  T
C224        C225   1.415       .  A
C224        C229   1.416       .  A
C225        C226   1.420       .  A
C225        C230   1.450       .  S
C226        C227   1.419       .  A
C226        C233   1.448       .  S
C227        C228   1.423       .  A
C228        C229   1.409       .  A
C228        C231   1.451       .  S
C229        C232   1.456       .  S
C230        N237   1.157       .  T
C231        N236   1.157       .  T
C232        N234   1.158       .  T
C233        N235   1.157       .  T
C238        C239   1.428       .  A
C238        C243   1.431       .  A
C239        C240   1.412       .  A
C239        C244   1.451       .  S
C240        C241   1.406       .  A
C240        C247   1.453       .  S
C241        C242   1.404       .  A
C242        C243   1.412       .  A
C242        C245   1.454       .  S
C243        C246   1.451       .  S
C244        N251   1.158       .  T
C245        N250   1.158       .  T
C246        N248   1.157       .  T
C247        N249   1.157       .  T
C252        C253   1.414       .  A
C252        C257   1.423       .  A
C253        C254   1.420       .  A
C253        C258   1.449       .  S
C254        C255   1.427       .  A
C254        C261   1.451       .  S
C255        C256   1.423       .  A
C256        C257   1.400       .  A
C256        C259   1.457       .  S
C257        C260   1.458       .  S
C258        N265   1.157       .  T
C259        N264   1.158       .  T
C260        N262   1.158       .  T
C261        N263   1.158       .  T
C266        C267   1.418       .  A
C266        C271   1.415       .  A
C267        C268   1.406       .  A
C267        C272   1.454       .  S
C268        C269   1.414       .  A
C268        C275   1.453       .  S
C269        C270   1.411       .  A
C270        C271   1.415       .  A
C270        C273   1.445       .  S
C271        C274   1.449       .  S
C272        N279   1.158       .  T
C273        N278   1.156       .  T
C274        N276   1.157       .  T
C275        N277   1.157       .  T
C280        C281   1.412       .  A
C280        C285   1.415       .  A
C281        C282   1.410       .  A
C281        C286   1.452       .  S
C282        C576   1.416   1_554  A
C282        C289   1.452   1_554  S
C283        C575   1.416       .  A
C283        C577   1.415       .  A
C284        C285   1.413       .  A
C284        C576   1.414   1_554  A
C284        C580   1.451       .  S
C285        C288   1.452       .  S
C286        N293   1.157       .  T
C287        C577   1.451       .  S
C287        N292   1.157       .  T
C288        N290   1.158       .  T
C289        N584   1.157       .  T
N291        C582   1.157       .  T
C294        N295   1.350       .  A
C294        N299   1.359       .  A
C294        C559   1.494       .  S
N295        C296   1.351       .  A
C296        N297   1.357       .  A
C296        C548   1.511       .  S
N297        C298   1.362       .  A
C298        N299   1.365       .  A
C298        C573   1.487       .  S
C300        N301   1.354       .  A
C300        N305   1.350       .  A
C300        C534   1.476       .  S
N301        C302   1.362       .  A
C302        N303   1.367       .  A
C302        C576   1.490       .  S
N303        C304   1.363       .  A
C304        N305   1.355       .  A
C304        C517   1.500       .  S
C306        N307   1.352       .  A
C306        N311   1.356       .  A
C306        C478   1.478       .  S
N307        C308   1.356       .  A
C308        N309   1.357       .  A
C308        C489   1.491       .  S
N309        C310   1.360       .  A
C310        N311   1.361       .  A
C310        C506   1.472       .  S
C312        N313   1.356       .  A
C312        N317   1.347       .  A
C312        C447   1.485       .  S
N313        C314   1.362       .  A
C314        N315   1.361       .  A
C314        C503   1.470       .  S
N315        C316   1.356       .  A
C316        N317   1.349       .  A
C316        C464   1.507       .  S
C318        N319   1.357       .  A
C318        N323   1.352       .  A
C318        C419   1.485       .  S
N319        C320   1.363       .  A
C320        N321   1.365       .  A
C320        C436   1.484       .  S
N321        C322   1.363       .  A
C322        N323   1.356       .  A
C322        C405   1.505       .  S
C324        N325   1.356       .  A
C324        N329   1.360       .  A
C324        C391   1.487       .  S
N325        C326   1.360       .  A
C326        N327   1.360       .  A
C326        C380   1.500       .  S
N327        C328   1.362       .  A
C328        N329   1.363       .  A
C328        C433   1.483       .  S
O330       Mn356   2.095       .  S
O330        C943   1.270   1_545  A
C331        C531   1.514       .  S
C331        O364   1.272       .  A
C331        O361   1.267       .  A
O332       Mn339   2.169       .  S
O332       Mn350   2.104       .  S
O332       Mn354   2.173       .  S
O332       Mn942   2.124       .  S
O333       Mn367   2.118       .  S
O333        C343   1.271       .  A
O334       Mn350   2.077       .  S
O334        C357   1.267       .  A
O335       Mn354   2.138       .  S
O335        C362   1.255       .  A
O336      Mn1539   1.954       .  S
O336       Mn356   1.956       .  S
O336        C352   1.212       .  S
C337        C492   1.500       .  S
C337        O340   1.257       .  A
C337        O363   1.220       .  S
O338      Mn1530   2.117       .  S
O338       Mn339   2.199       .  S
O338       Mn372   2.111       .  S
O338       Mn354   2.202       .  S
Mn339      O1540   2.132       .  S
Mn339       O344   2.128       .  S
Mn339       O957   2.140       .  S
Mn339      O2103   2.180       .  S
O340      Mn1526   2.113   1_455  S
O341       Mn348   2.074       .  S
O341        C343   1.262       .  A
C342        C461   1.498       .  S
C342        O368   1.253       .  A
C342        O355   1.233       .  A
C343        C562   1.487       .  S
O344        C369   1.258       .  A
O345      Mn2097   2.180   1_445  S
O345       Mn348   2.106       .  S
O345       Mn367   2.122       .  S
O345      Mn2112   2.172   1_445  S
O346       Mn350   1.971       .  S
O346       Mn372   1.978       .  S
O346        C369   1.218       .  S
C347        C422   1.520       .  S
C347       O1545   1.269       .  A
C347        O349   1.274       .  A
Mn348       O361   2.079       .  S
Mn348       O941   2.013   1_545  S
Mn348       O949   1.967   1_545  S
O349       Mn372   2.111       .  S
Mn350       O366   2.063       .  S
Mn350       O360   2.007       .  S
O351       Mn356   2.113       .  S
O351        C939   1.270   1_545  A
C352        C408   1.509       .  S
C352        O370   1.261       .  A
C353        C450   1.481       .  S
C353        O937   1.271       .  A
C353        O366   1.261       .  A
Mn354      O1512   2.113       .  S
Mn354       O956   2.151       .  S
Mn354      O2103   2.169       .  S
O355       Mn934   2.000       .  S
O355       Mn358   2.004       .  S
Mn356       O918   2.118   1_545  S
Mn356       O374   1.957       .  S
C357        C475   1.517       .  S
C357        O916   1.274       .  A
Mn358       O365   2.117       .  S
Mn358       O373   2.088       .  S
Mn358      O1510   2.117   1_455  S
Mn358       O363   1.986       .  S
C359        C394   1.527       .  S
C359       O1537   1.274       .  A
C359        O375   1.270       .  A
O360       Mn372   2.010       .  S
O360        C362   1.234       .  A
C362        C545   1.502       .  S
O363       Mn934   1.973       .  S
O364       Mn367   2.102       .  S
O365       C1531   1.274   1_455  A
Mn367      O1508   1.954   1_455  S
Mn367      O1546   1.960   1_455  S
O368      Mn1511   2.133   1_455  S
C369        C520   1.506       .  S
O370       Mn940   2.150   1_545  S
O371       Mn925   2.146   1_545  S
O371        C376   1.261       .  A
Mn372       O375   2.092       .  S
O373       C1519   1.269   1_455  A
O374      Mn1539   1.960       .  S
O374        C376   1.213       .  S
C376        C377   1.506       .  S
C377        C378   1.417       .  A
C377        C382   1.425       .  A
C378        C379   1.421       .  A
C378       C1555   1.449       .  S
C379        C380   1.418       .  A
C379       C1558   1.450       .  S
C380        C381   1.412       .  A
C381        C382   1.409       .  A
C381        C384   1.455       .  S
C382        C385   1.452       .  S
C383       C1550   1.449       .  S
C383        N390   1.156       .  T
C384        N389   1.157       .  T
C385        N387   1.158       .  T
C386       C1551   1.450       .  S
C386        N388   1.158       .  T
C391       C1564   1.403       .  A
C391        C396   1.406       .  A
C392       C1563   1.403   1_455  A
C392        C393   1.415       .  A
C392        C397   1.454       .  S
C393       C1566   1.430   1_455  A
C393        C400   1.446       .  S
C394       C1565   1.430       .  A
C394        C395   1.433       .  A
C395        C396   1.418       .  A
C395        C398   1.452       .  S
C396        C399   1.453       .  S
C397        N404   1.157       .  T
C398        N403   1.158       .  T
C399        N401   1.157       .  T
C400        N402   1.156       .  T
C405        C406   1.418       .  A
C405       C1582   1.417       .  A
C406        C407   1.422       .  A
C406        C411   1.450       .  S
C407        C408   1.417       .  A
C407        C414   1.448       .  S
C408       C1581   1.424       .  A
C409       C1580   1.424   1_455  A
C409        C410   1.409       .  A
C409        C412   1.454       .  S
C410       C1577   1.417   1_455  A
C410        C413   1.456       .  S
C411        N418   1.158       .  T
C412        N417   1.158       .  T
C413        N415   1.158       .  T
C414        N416   1.156   1_545  T
C419       C1592   1.407       .  A
C419        C424   1.406       .  A
C420       C1591   1.407   1_455  A
C420        C421   1.417       .  A
C420        C425   1.453       .  S
C421       C1594   1.431   1_455  A
C421        C428   1.451       .  S
C422       C1593   1.431       .  A
C422        C423   1.428       .  A
C423        C424   1.413       .  A
C423        C426   1.450       .  S
C424        C427   1.454       .  S
C425        N432   1.158       .  T
C426        N431   1.157       .  T
C427        N429   1.157       .  T
C428        N430   1.158       .  T
C434        C435   1.413       .  A
C435        C436   1.412       .  A
C435        C442   1.450       .  S
C436        C437   1.412       .  A
C437        C438   1.413       .  A
C437        C440   1.451       .  S
C438        C441   1.451       .  S
C439        N446   1.157       .  T
C440        N445   1.157       .  T
C442       N1616   1.157       .  T
N444       C1614   1.157       .  T
C447        C448   1.413       .  A
C447        C452   1.415       .  A
C448        C449   1.413       .  A
C448        C453   1.450       .  S
C449        C450   1.412       .  A
C449        C456   1.446       .  S
C450        C451   1.413       .  A
C451        C452   1.404       .  A
C451        C454   1.454       .  S
C452        C455   1.454       .  S
C453       N1046   1.157       .  T
C454        N459   1.157       .  T
C455        N457   1.157       .  T
C456       N1044   1.156       .  T
N458       C1042   1.156   1_545  T
N460       C1039   1.158       .  T
C461        C462   1.415       .  A
C461        C466   1.423       .  A
C462        C463   1.419       .  A
C462        C467   1.450       .  S
C463        C464   1.424       .  A
C463        C470   1.450       .  S
C464        C465   1.421       .  A
C465        C466   1.397       .  A
C465        C468   1.458       .  S
C466        C469   1.458       .  S
C467        N474   1.157       .  T
C468        N473   1.158       .  T
C469        N471   1.158       .  T
C470        N472   1.158       .  T
C475        C476   1.428       .  A
C475        C480   1.433       .  A
C476        C477   1.414       .  A
C476       C1067   1.451       .  S
C477        C478   1.406       .  A
C477       C1070   1.453       .  S
C478        C479   1.403       .  A
C479        C480   1.412       .  A
C479        C482   1.454       .  S
C480        C483   1.452       .  S
C481       C1062   1.451       .  S
C481        N488   1.158       .  T
C482        N487   1.157       .  T
C483        N485   1.157       .  T
C484       C1063   1.454       .  S
C484        N486   1.157       .  T
C489        C490   1.415       .  A
C489        C494   1.411       .  A
C490        C491   1.417       .  A
C490        C495   1.451       .  S
C491        C492   1.419       .  A
C491        C498   1.450       .  S
C492        C493   1.422       .  A
C493        C494   1.405       .  A
C493       C1082   1.449       .  S
C494       C1083   1.456       .  S
C495        N502   1.158       .  T
C496       C1079   1.450       .  S
C496        N501   1.157       .  T
C497       C1080   1.457       .  S
C497        N499   1.157       .  T
C498       N1672   1.156       .  T
N500       C1670   1.156       .  T
C503        C801   1.410   1_556  A
C504        C505   1.409       .  A
C505        C506   1.411       .  A
C505        C512   1.451       .  S
C506       C1093   1.410       .  A
C507       C1092   1.409   1_545  A
C507        C508   1.407       .  A
C507        C510   1.450       .  S
C508        C796   1.410   1_545  A
C508        C511   1.451       .  S
C509        N516   1.157       .  T
C510        N515   1.157       .  T
C512        N514   1.157       .  T
C517        C518   1.415       .  A
C517        C522   1.416       .  A
C518        C519   1.420       .  A
C518        C523   1.450       .  S
C519        C520   1.419       .  A
C519        C526   1.448       .  S
C520        C521   1.423       .  A
C521        C522   1.409       .  A
C521        C524   1.451       .  S
C522        C525   1.456       .  S
C523        N530   1.157       .  T
C524        N529   1.157       .  T
C525        N527   1.158       .  T
C526        N528   1.157       .  T
C531        C532   1.428       .  A
C531        C536   1.431       .  A
C532        C533   1.412       .  A
C532        C537   1.451       .  S
C533        C534   1.406       .  A
C533        C540   1.453       .  S
C534        C535   1.404       .  A
C535        C536   1.412       .  A
C535        C538   1.454       .  S
C536        C539   1.451       .  S
C537        N544   1.158       .  T
C538        N543   1.158       .  T
C539        N541   1.157       .  T
C540        N542   1.157       .  T
C545        C546   1.414       .  A
C545        C550   1.423       .  A
C546        C547   1.420       .  A
C546        C551   1.449       .  S
C547        C548   1.427       .  A
C547        C554   1.451       .  S
C548        C549   1.423       .  A
C549        C550   1.400       .  A
C549        C552   1.457       .  S
C550        C553   1.458       .  S
C551        N558   1.157       .  T
C552        N557   1.158       .  T
C553        N555   1.158       .  T
C554        N556   1.158       .  T
C559        C560   1.418       .  A
C559        C564   1.415       .  A
C560        C561   1.406       .  A
C560        C565   1.454       .  S
C561        C562   1.414       .  A
C561        C568   1.453       .  S
C562        C563   1.411       .  A
C563        C564   1.415       .  A
C563        C566   1.445       .  S
C564        C567   1.449       .  S
C565        N572   1.158       .  T
C566        N571   1.156       .  T
C567        N569   1.157       .  T
C568        N570   1.157       .  T
C573        C574   1.412       .  A
C573        C578   1.415       .  A
C574        C575   1.410       .  A
C574        C579   1.452       .  S
C575        C582   1.452       .  S
C577        C578   1.413       .  A
C578        C581   1.452       .  S
C579        N586   1.157       .  T
C580        N585   1.157   1_554  T
C581        N583   1.158       .  T
C587        N588   1.348       .  A
C587        N592   1.355       .  A
C587        C852   1.488       .  S
N588        C589   1.350       .  A
C589        N590   1.356       .  A
C589        C841   1.509       .  S
N590        C591   1.362       .  A
C591        N592   1.363       .  A
C591        C866   1.485       .  S
C593        N594   1.354       .  A
C593        N598   1.351       .  A
C593        C827   1.475       .  S
N594        C595   1.361       .  A
C595        N596   1.363       .  A
C595        C869   1.486       .  S
N596        C597   1.358       .  A
C597        N598   1.356       .  A
C597        C810   1.497       .  S
C599        N600   1.351       .  A
C599        N604   1.354       .  A
C599        C771   1.474       .  S
N600        C601   1.356       .  A
C601        N602   1.358       .  A
C601        C782   1.491       .  S
N602        C603   1.360       .  A
C603        N604   1.359       .  A
C603        C799   1.470       .  S
C605        N606   1.355       .  A
C605        N610   1.349       .  A
C605        C740   1.489       .  S
N606        C607   1.362       .  A
C607        N608   1.361       .  A
C607        C796   1.469       .  S
N608        C609   1.356       .  A
C609        N610   1.351       .  A
C609        C757   1.508       .  S
C611        N612   1.358       .  A
C611        N616   1.355       .  A
C611        C712   1.487       .  S
N612        C613   1.363       .  A
C613        N614   1.364       .  A
C613        C729   1.484       .  S
N614        C615   1.361       .  A
C615        N616   1.359       .  A
C615        C698   1.503       .  S
C617        N618   1.353       .  A
C617        N622   1.358       .  A
C617        C684   1.484       .  S
N618        C619   1.358       .  A
C619        N620   1.361       .  A
C619        C673   1.497       .  S
N620        C621   1.363       .  A
C621        N622   1.363       .  A
C621        C726   1.484       .  S
O623       Mn649   2.111       .  S
C624        C824   1.514       .  S
C624        O657   1.271       .  A
C624        O654   1.267       .  A
O625       Mn632   2.168       .  S
O625       Mn643   2.108       .  S
O625       Mn647   2.176       .  S
O626       Mn660   2.114       .  S
O626        C636   1.270       .  A
O627       Mn643   2.084       .  S
O627        C650   1.268       .  A
O628       Mn647   2.133       .  S
O628        C655   1.254       .  A
O629      Mn1832   1.956       .  S
O629       Mn649   1.961       .  S
O629        C645   1.212       .  S
C630        C785   1.501       .  S
C630        O633   1.258       .  A
C630        O656   1.217       .  S
O631      Mn1823   2.115       .  S
O631       Mn632   2.196       .  S
O631       Mn665   2.116       .  S
O631       Mn647   2.200       .  S
Mn632      O1833   2.133       .  S
Mn632       O637   2.127       .  S
Mn632      O1224   2.180   1_565  S
O633      Mn1819   2.122   1_455  S
O634       Mn641   2.064       .  S
O634        C636   1.260       .  A
C635        C754   1.502       .  S
C635        O661   1.255       .  A
C635        O648   1.237       .  A
C636        C855   1.480       .  S
O637        C662   1.259       .  A
O638      Mn1218   2.180   1_455  S
O638       Mn641   2.110       .  S
O638       Mn660   2.120       .  S
O638      Mn1233   2.169   1_455  S
O639       Mn643   1.970       .  S
O639       Mn665   1.981       .  S
O639        C662   1.218       .  S
C640        C715   1.525       .  S
C640       O1838   1.270       .  A
C640        O642   1.273       .  A
Mn641       O654   2.080       .  S
O642       Mn665   2.111       .  S
Mn643       O659   2.066       .  S
Mn643       O653   2.005       .  S
O644       Mn649   2.117       .  S
C645        C701   1.509       .  S
C645        O663   1.262       .  A
C646        C743   1.480       .  S
C646        O659   1.260       .  A
Mn647      O1805   2.122       .  S
Mn647      O1224   2.172   1_565  S
O648       Mn651   2.016       .  S
Mn649       O667   1.962       .  S
C650        C768   1.513       .  S
Mn651       O658   2.111       .  S
Mn651       O666   2.093       .  S
Mn651      O1803   2.115   1_455  S
Mn651       O656   1.977       .  S
C652        C687   1.524       .  S
C652       O1830   1.273       .  A
C652        O668   1.270       .  A
O653       Mn665   2.009       .  S
O653        C655   1.234       .  A
C655        C838   1.500       .  S
O657       Mn660   2.099       .  S
O658       C1824   1.273   1_455  A
Mn660      O1801   1.956   1_455  S
Mn660      O1839   1.958   1_455  S
O661      Mn1804   2.133   1_455  S
C662        C813   1.504       .  S
O664        C669   1.260       .  A
Mn665       O668   2.093       .  S
O666       C1812   1.270   1_455  A
O667      Mn1832   1.959       .  S
O667        C669   1.213       .  S
C669        C670   1.503       .  S
C670        C671   1.417       .  A
C670        C675   1.423       .  A
C671        C672   1.420       .  A
C671       C1848   1.448       .  S
C672        C673   1.416       .  A
C672       C1851   1.451       .  S
C673        C674   1.414       .  A
C674        C675   1.407       .  A
C674        C677   1.455       .  S
C675        C678   1.453       .  S
C676       C1843   1.448       .  S
C676        N683   1.156       .  T
C677        N682   1.157       .  T
C678        N680   1.158       .  T
C679       C1844   1.451       .  S
C679        N681   1.158       .  T
C684       C1857   1.403       .  A
C684        C689   1.407       .  A
C685       C1856   1.403   1_455  A
C685        C686   1.414       .  A
C685        C690   1.454       .  S
C686       C1859   1.431   1_455  A
C686        C693   1.447       .  S
C687       C1858   1.431       .  A
C687        C688   1.432       .  A
C688        C689   1.417       .  A
C688        C691   1.452       .  S
C689        C692   1.453       .  S
C690        N697   1.157       .  T
C691        N696   1.157       .  T
C692        N694   1.158       .  T
C693        N695   1.156       .  T
C698        C699   1.418       .  A
C698       C1875   1.414       .  A
C699        C700   1.422       .  A
C699        C704   1.449       .  S
C700        C701   1.416       .  A
C700        C707   1.449       .  S
C701       C1874   1.426       .  A
C702       C1873   1.426   1_455  A
C702        C703   1.410       .  A
C702        C705   1.452       .  S
C703       C1870   1.414   1_455  A
C703        C706   1.456       .  S
C704        N711   1.157       .  T
C705        N710   1.158       .  T
C706        N708   1.157       .  T
C707        N709   1.156       .  T
C712       C1885   1.407       .  A
C712        C717   1.403       .  A
C713       C1884   1.407   1_455  A
C713        C714   1.418       .  A
C713        C718   1.452       .  S
C714       C1887   1.433   1_455  A
C714        C721   1.452       .  S
C715       C1886   1.433       .  A
C715        C716   1.430       .  A
C716        C717   1.414       .  A
C716        C719   1.447       .  S
C717        C720   1.454       .  S
C718        N725   1.157       .  T
C719        N724   1.156       .  T
C720        N722   1.157       .  T
C721        N723   1.158       .  T
C726       C1020   1.412       .  A
C726       C1024   1.412       .  A
C727       C1019   1.412   1_554  A
C727        C728   1.412       .  A
C727       C1025   1.451       .  S
C728        C729   1.412       .  A
C728        C735   1.450       .  S
C729        C730   1.413       .  A
C730        C731   1.413       .  A
C730        C733   1.451       .  S
C731       C1019   1.412   1_554  A
C731        C734   1.451   1_554  S
C732       C1020   1.451       .  S
C732        N739   1.157       .  T
C733        N738   1.157       .  T
C734       N1029   1.157       .  T
C735       N1909   1.157       .  T
N736       C1027   1.157       .  T
N737       C1907   1.157       .  T
C740        C741   1.415       .  A
C740        C745   1.417       .  A
C741        C742   1.413       .  A
C741        C746   1.449   1_565  S
C742        C743   1.411       .  A
C742        C749   1.448       .  S
C743        C744   1.413       .  A
C744        C745   1.405       .  A
C744        C747   1.454       .  S
C745        C748   1.454       .  S
C747        N752   1.158       .  T
C748        N750   1.157       .  T
C754        C755   1.417       .  A
C754        C759   1.423       .  A
C755        C756   1.421       .  A
C755        C760   1.449       .  S
C756        C757   1.425       .  A
C756        C763   1.450       .  S
C757        C758   1.419       .  A
C758        C759   1.397       .  A
C758        C761   1.457       .  S
C759        C762   1.456       .  S
C760        N767   1.157       .  T
C761        N766   1.157   1_565  T
C762        N764   1.158       .  T
C763        N765   1.158       .  T
C768        C769   1.429   1_565  A
C768        C773   1.430       .  A
C769        C770   1.411       .  A
C770        C771   1.404   1_545  A
C771        C772   1.403       .  A
C772        C773   1.411       .  A
C772        C775   1.454       .  S
C773        C776   1.450       .  S
C774        N781   1.158       .  T
C775        N780   1.157       .  T
C776        N778   1.157       .  T
C777        N779   1.157       .  T
C782        C783   1.415       .  A
C782        C787   1.412   1_565  A
C783        C784   1.417       .  A
C783        C788   1.451       .  S
C784        C785   1.417       .  A
C784        C791   1.449       .  S
C785        C786   1.423   1_565  A
C786        C787   1.406       .  A
C788        N795   1.158       .  T
C789        N794   1.158       .  T
C790        N792   1.157       .  T
C791       N1965   1.156       .  T
N793       C1963   1.156       .  T
C796       C1090   1.410       .  A
C797       C1089   1.410       .  A
C797        C798   1.407       .  A
C797       C1095   1.451   1_554  S
C798        C799   1.410       .  A
C798        C805   1.451       .  S
C800        C801   1.407       .  A
C800        C803   1.451       .  S
C801        C804   1.451   1_554  S
C802       C1090   1.451       .  S
C802        N809   1.157       .  T
C803        N808   1.157       .  T
C804       N1099   1.157       .  T
C805        N807   1.157       .  T
N806       C1097   1.157       .  T
C810        C811   1.416       .  A
C810        C815   1.413       .  A
C811        C812   1.418       .  A
C811        C816   1.451       .  S
C812        C813   1.418       .  A
C812        C819   1.448       .  S
C813        C814   1.424       .  A
C814        C815   1.407       .  A
C814        C817   1.451       .  S
C815        C818   1.456       .  S
C816        N823   1.157       .  T
C817        N822   1.158       .  T
C818        N820   1.158       .  T
C819        N821   1.156       .  T
C824        C825   1.429       .  A
C824        C829   1.431       .  A
C825        C826   1.412       .  A
C825        C830   1.451       .  S
C826        C827   1.405       .  A
C826        C833   1.453       .  S
C827        C828   1.403       .  A
C828        C829   1.411       .  A
C828        C831   1.454       .  S
C829        C832   1.450       .  S
C830        N837   1.158       .  T
C831        N836   1.158       .  T
C832        N834   1.157       .  T
C833        N835   1.157       .  T
C838        C839   1.414       .  A
C838        C843   1.423       .  A
C839        C840   1.419       .  A
C839        C844   1.450       .  S
C840        C841   1.426       .  A
C840        C847   1.450       .  S
C841        C842   1.421       .  A
C842        C843   1.399       .  A
C842        C845   1.458       .  S
C843        C846   1.457       .  S
C844        N851   1.157       .  T
C845        N850   1.158       .  T
C846        N848   1.158       .  T
C847        N849   1.158       .  T
C852        C853   1.417       .  A
C852        C857   1.415       .  A
C853        C854   1.404       .  A
C853        C858   1.454       .  S
C854        C855   1.413       .  A
C854        C861   1.453       .  S
C855        C856   1.410       .  A
C856        C857   1.412       .  A
C856        C859   1.447       .  S
C857        C860   1.449       .  S
C858        N865   1.157       .  T
C859        N864   1.156       .  T
C860        N862   1.158       .  T
C861        N863   1.158       .  T
C866        C867   1.415       .  A
C866        C871   1.415       .  A
C867        C868   1.409       .  A
C867        C872   1.453       .  S
C868       C1162   1.415   1_554  A
C868        C875   1.452   1_554  S
C869       C1161   1.416       .  A
C869       C1163   1.414       .  A
C870       C1162   1.414   1_554  A
C870        C871   1.409       .  A
C870       C1166   1.452       .  S
C871        C874   1.453       .  S
C872        N879   1.157       .  T
C873       C1163   1.452       .  S
C873        N878   1.157       .  T
C874        N876   1.158       .  T
C875       N1170   1.158       .  T
N877       C1168   1.158       .  T
C880        N881   1.348       .  A
C880        N885   1.355       .  A
C880       C1145   1.489       .  S
N881        C882   1.350       .  A
C882        N883   1.356       .  A
C882       C1134   1.509       .  S
N883        C884   1.362       .  A
C884        N885   1.363       .  A
C884       C1159   1.485       .  S
C886        N887   1.354       .  A
C886        N891   1.351       .  A
C886       C1120   1.475       .  S
N887        C888   1.361       .  A
C888        N889   1.363       .  A
C888       C1162   1.485       .  S
N889        C890   1.358       .  A
C890        N891   1.356       .  A
C890       C1103   1.497       .  S
C892        N893   1.351       .  A
C892        N897   1.354       .  A
C892       C1064   1.474       .  S
N893        C894   1.356       .  A
C894        N895   1.358       .  A
C894       C1075   1.492       .  S
N895        C896   1.360       .  A
C896        N897   1.359       .  A
C896       C1092   1.470       .  S
C898        N899   1.355       .  A
C898        N903   1.349       .  A
C898       C1033   1.489       .  S
N899        C900   1.362       .  A
C900        N901   1.361       .  A
C900       C1089   1.469   1_556  S
N901        C902   1.356       .  A
C902        N903   1.351       .  A
C902       C1050   1.508       .  S
C904        N905   1.358       .  A
C904        N909   1.355       .  A
C904       C1005   1.487       .  S
N905        C906   1.363       .  A
C906        N907   1.364       .  A
C906       C1022   1.485       .  S
N907        C908   1.361       .  A
C908        N909   1.359       .  A
C908        C991   1.503       .  S
C910        N911   1.353       .  A
C910        N915   1.358       .  A
C910        C977   1.484       .  S
N911        C912   1.358       .  A
C912        N913   1.360       .  A
C912        C966   1.497       .  S
N913        C914   1.363       .  A
C914        N915   1.363       .  A
C914       C1019   1.484       .  S
O916       Mn942   2.111       .  S
C917       C1117   1.514       .  S
C917        O950   1.271       .  A
C917        O947   1.267       .  A
O918       Mn925   2.168       .  S
O918       Mn936   2.108       .  S
O918       Mn940   2.176       .  S
O919       Mn953   2.114       .  S
O919        C929   1.270       .  A
O920       Mn936   2.083       .  S
O920        C943   1.268       .  A
O921       Mn940   2.133       .  S
O921        C948   1.254       .  A
O922      Mn2125   1.956       .  S
O922       Mn942   1.961       .  S
O922        C938   1.212       .  S
C923       C1078   1.501       .  S
C923        O926   1.258       .  A
C923        O949   1.217       .  S
O924      Mn2116   2.115       .  S
O924       Mn925   2.196       .  S
O924       Mn958   2.116       .  S
O924       Mn940   2.200       .  S
Mn925      O2126   2.133       .  S
Mn925       O930   2.127       .  S
Mn925      O1517   2.180   1_565  S
O926      Mn2112   2.122   1_455  S
O927       Mn934   2.064       .  S
O927        C929   1.260       .  A
C928       C1047   1.502       .  S
C928        O954   1.255       .  A
C928        O941   1.237       .  A
C929       C1148   1.480       .  S
O930        C955   1.259       .  A
O931      Mn1511   2.180   1_455  S
O931       Mn934   2.110       .  S
O931       Mn953   2.120       .  S
O931      Mn1526   2.169   1_455  S
O932       Mn936   1.970       .  S
O932       Mn958   1.981       .  S
O932        C955   1.218       .  S
C933       C1008   1.525       .  S
C933       O2131   1.270       .  A
C933        O935   1.273       .  A
Mn934       O947   2.080       .  S
O935       Mn958   2.111       .  S
Mn936       O952   2.067       .  S
Mn936       O946   2.005       .  S
O937       Mn942   2.117       .  S
C938        C994   1.509       .  S
C938        O956   1.262       .  A
C939       C1036   1.481       .  S
C939        O952   1.260       .  A
Mn940      O2098   2.122       .  S
Mn940      O1517   2.172   1_565  S
O941       Mn944   2.016       .  S
Mn942       O960   1.962       .  S
C943       C1061   1.513       .  S
Mn944       O951   2.111       .  S
Mn944       O959   2.093       .  S
Mn944      O2096   2.115   1_455  S
Mn944       O949   1.977       .  S
C945        C980   1.524       .  S
C945       O2123   1.273       .  A
C945        O961   1.270       .  A
O946       Mn958   2.010       .  S
O946        C948   1.234       .  A
C948       C1131   1.500       .  S
O950       Mn953   2.100       .  S
O951       C2117   1.273   1_455  A
Mn953      O2094   1.956   1_455  S
Mn953      O2132   1.958   1_455  S
O954      Mn2097   2.133   1_455  S
C955       C1106   1.504       .  S
O957        C962   1.260       .  A
Mn958       O961   2.093       .  S
O959       C2105   1.270   1_455  A
O960      Mn2125   1.959       .  S
O960        C962   1.213       .  S
C962        C963   1.503       .  S
C963        C964   1.417       .  A
C963        C968   1.423       .  A
C964        C965   1.420       .  A
C964       C2141   1.448       .  S
C965        C966   1.416       .  A
C965       C2144   1.451       .  S
C966        C967   1.414       .  A
C967        C968   1.407       .  A
C967        C970   1.455       .  S
C968        C971   1.453       .  S
C969       C2136   1.448       .  S
C969        N976   1.156       .  T
C970        N975   1.157       .  T
C971        N973   1.158       .  T
C972       C2137   1.451       .  S
C972        N974   1.158       .  T
C977       C2150   1.403       .  A
C977        C982   1.407       .  A
C978       C2149   1.403   1_455  A
C978        C979   1.414       .  A
C978        C983   1.454       .  S
C979       C2152   1.431   1_455  A
C979        C986   1.447       .  S
C980       C2151   1.431       .  A
C980        C981   1.432       .  A
C981        C982   1.417       .  A
C981        C984   1.452       .  S
C982        C985   1.453       .  S
C983        N990   1.157       .  T
C984        N989   1.157       .  T
C985        N987   1.158       .  T
C986        N988   1.156       .  T
C991        C992   1.418       .  A
C991       C2168   1.414       .  A
C992        C993   1.422       .  A
C992        C997   1.449       .  S
C993        C994   1.417       .  A
C993       C1000   1.449       .  S
C994       C2167   1.426       .  A
C995       C2166   1.426   1_455  A
C995        C996   1.410       .  A
C995        C998   1.452       .  S
C996       C2163   1.414   1_455  A
C996        C999   1.456       .  S
C997       N1004   1.157       .  T
C998       N1003   1.158       .  T
C999       N1001   1.157       .  T
C1000      N1002   1.156       .  T
C1005      C2178   1.407       .  A
C1005      C1010   1.403       .  A
C1006      C2177   1.407   1_455  A
C1006      C1007   1.418       .  A
C1006      C1011   1.452       .  S
C1007      C2180   1.433   1_455  A
C1007      C1014   1.452       .  S
C1008      C2179   1.433       .  A
C1008      C1009   1.430       .  A
C1009      C1010   1.414       .  A
C1009      C1012   1.447       .  S
C1010      C1013   1.454       .  S
C1011      N1018   1.157       .  T
C1012      N1017   1.156       .  T
C1013      N1015   1.157       .  T
C1014      N1016   1.158       .  T
C1020      C1021   1.412       .  A
C1021      C1022   1.412       .  A
C1021      C1028   1.450       .  S
C1022      C1023   1.413       .  A
C1023      C1024   1.413       .  A
C1023      C1026   1.451       .  S
C1024      C1027   1.451       .  S
C1025      N1032   1.157   1_554  T
C1026      N1031   1.157       .  T
C1028      N2202   1.157       .  T
N1030      C2200   1.157       .  T
C1033      C1034   1.415       .  A
C1033      C1038   1.417       .  A
C1034      C1035   1.413       .  A
C1034      C1039   1.449   1_565  S
C1035      C1036   1.411       .  A
C1035      C1042   1.448       .  S
C1036      C1037   1.413       .  A
C1037      C1038   1.405       .  A
C1037      C1040   1.454       .  S
C1038      C1041   1.454       .  S
C1040      N1045   1.158       .  T
C1041      N1043   1.157       .  T
C1047      C1048   1.416       .  A
C1047      C1052   1.423       .  A
C1048      C1049   1.421       .  A
C1048      C1053   1.449       .  S
C1049      C1050   1.425       .  A
C1049      C1056   1.450       .  S
C1050      C1051   1.419       .  A
C1051      C1052   1.397       .  A
C1051      C1054   1.457       .  S
C1052      C1055   1.456       .  S
C1053      N1060   1.157       .  T
C1054      N1059   1.157   1_565  T
C1055      N1057   1.158       .  T
C1056      N1058   1.158       .  T
C1061      C1062   1.429   1_565  A
C1061      C1066   1.430       .  A
C1062      C1063   1.411       .  A
C1063      C1064   1.404   1_545  A
C1064      C1065   1.403       .  A
C1065      C1066   1.411       .  A
C1065      C1068   1.454       .  S
C1066      C1069   1.450       .  S
C1067      N1074   1.158       .  T
C1068      N1073   1.157       .  T
C1069      N1071   1.157       .  T
C1070      N1072   1.157       .  T
C1075      C1076   1.415       .  A
C1075      C1080   1.412   1_565  A
C1076      C1077   1.417       .  A
C1076      C1081   1.451       .  S
C1077      C1078   1.417       .  A
C1077      C1084   1.449       .  S
C1078      C1079   1.423   1_565  A
C1079      C1080   1.406       .  A
C1081      N1088   1.158       .  T
C1082      N1087   1.158       .  T
C1083      N1085   1.157       .  T
C1084      N2258   1.156       .  T
N1086      C2256   1.156       .  T
C1090      C1091   1.407       .  A
C1091      C1092   1.410       .  A
C1091      C1098   1.451       .  S
C1093      C1094   1.407       .  A
C1093      C1096   1.451       .  S
C1094      C1097   1.451       .  S
C1095      N1102   1.157       .  T
C1096      N1101   1.157       .  T
C1098      N1100   1.157       .  T
C1103      C1104   1.416       .  A
C1103      C1108   1.413       .  A
C1104      C1105   1.418       .  A
C1104      C1109   1.451       .  S
C1105      C1106   1.418       .  A
C1105      C1112   1.448       .  S
C1106      C1107   1.424       .  A
C1107      C1108   1.407       .  A
C1107      C1110   1.451       .  S
C1108      C1111   1.456       .  S
C1109      N1116   1.157       .  T
C1110      N1115   1.158       .  T
C1111      N1113   1.158       .  T
C1112      N1114   1.156       .  T
C1117      C1118   1.429       .  A
C1117      C1122   1.431       .  A
C1118      C1119   1.412       .  A
C1118      C1123   1.451       .  S
C1119      C1120   1.405       .  A
C1119      C1126   1.453       .  S
C1120      C1121   1.403       .  A
C1121      C1122   1.411       .  A
C1121      C1124   1.454       .  S
C1122      C1125   1.450       .  S
C1123      N1130   1.158       .  T
C1124      N1129   1.158       .  T
C1125      N1127   1.157       .  T
C1126      N1128   1.157       .  T
C1131      C1132   1.414       .  A
C1131      C1136   1.423       .  A
C1132      C1133   1.419       .  A
C1132      C1137   1.450       .  S
C1133      C1134   1.426       .  A
C1133      C1140   1.450       .  S
C1134      C1135   1.421       .  A
C1135      C1136   1.399       .  A
C1135      C1138   1.458       .  S
C1136      C1139   1.457       .  S
C1137      N1144   1.157       .  T
C1138      N1143   1.158       .  T
C1139      N1141   1.158       .  T
C1140      N1142   1.158       .  T
C1145      C1146   1.417       .  A
C1145      C1150   1.415       .  A
C1146      C1147   1.404       .  A
C1146      C1151   1.454       .  S
C1147      C1148   1.413       .  A
C1147      C1154   1.453       .  S
C1148      C1149   1.410       .  A
C1149      C1150   1.412       .  A
C1149      C1152   1.447       .  S
C1150      C1153   1.449       .  S
C1151      N1158   1.157       .  T
C1152      N1157   1.156       .  T
C1153      N1155   1.158       .  T
C1154      N1156   1.158       .  T
C1159      C1160   1.415       .  A
C1159      C1164   1.415       .  A
C1160      C1161   1.409       .  A
C1160      C1165   1.453       .  S
C1161      C1168   1.452       .  S
C1163      C1164   1.409       .  A
C1164      C1167   1.453       .  S
C1165      N1172   1.157       .  T
C1166      N1171   1.157   1_554  T
C1167      N1169   1.158       .  T
C1173      N1174   1.350       .  A
C1173      N1178   1.359       .  A
C1173      C1438   1.494       .  S
N1174      C1175   1.351       .  A
C1175      N1176   1.357       .  A
C1175      C1427   1.511       .  S
N1176      C1177   1.362       .  A
C1177      N1178   1.365       .  A
C1177      C1452   1.486       .  S
C1179      N1180   1.354       .  A
C1179      N1184   1.350       .  A
C1179      C1413   1.476       .  S
N1180      C1181   1.362       .  A
C1181      N1182   1.367       .  A
C1181      C1455   1.490       .  S
N1182      C1183   1.363       .  A
C1183      N1184   1.355       .  A
C1183      C1396   1.500       .  S
C1185      N1186   1.352       .  A
C1185      N1190   1.356       .  A
C1185      C1357   1.478       .  S
N1186      C1187   1.356       .  A
C1187      N1188   1.357       .  A
C1187      C1368   1.491       .  S
N1188      C1189   1.360       .  A
C1189      N1190   1.360       .  A
C1189      C1385   1.472       .  S
C1191      N1192   1.356       .  A
C1191      N1196   1.347       .  A
C1191      C1326   1.485       .  S
N1192      C1193   1.362       .  A
C1193      N1194   1.361       .  A
C1193      C1382   1.470       .  S
N1194      C1195   1.356       .  A
C1195      N1196   1.349       .  A
C1195      C1343   1.507       .  S
C1197      N1198   1.357       .  A
C1197      N1202   1.352       .  A
C1197      C1298   1.485       .  S
N1198      C1199   1.363       .  A
C1199      N1200   1.365       .  A
C1199      C1315   1.484       .  S
N1200      C1201   1.363       .  A
C1201      N1202   1.356       .  A
C1201      C1284   1.505       .  S
C1203      N1204   1.356       .  A
C1203      N1208   1.360       .  A
C1203      C1270   1.487       .  S
N1204      C1205   1.360       .  A
C1205      N1206   1.360       .  A
C1205      C1259   1.500       .  S
N1206      C1207   1.362       .  A
C1207      N1208   1.363       .  A
C1207      C1312   1.483       .  S
O1209     Mn1235   2.095       .  S
O1209      C1822   1.270   1_545  A
C1210      C1410   1.514       .  S
C1210      O1243   1.272       .  A
C1210      O1240   1.267       .  A
O1211     Mn1218   2.170       .  S
O1211     Mn1229   2.104       .  S
O1211     Mn1233   2.173       .  S
O1211     Mn1821   2.124       .  S
O1212     Mn1246   2.118       .  S
O1212      C1222   1.271       .  A
O1213     Mn1229   2.077       .  S
O1213      C1236   1.267       .  A
O1214     Mn1233   2.138       .  S
O1214      C1241   1.255       .  A
O1215     Mn1235   1.955       .  S
O1215      C1231   1.212       .  S
C1216      C1371   1.500       .  S
C1216      O1219   1.257       .  A
C1216      O1242   1.220       .  S
O1217     Mn1218   2.199       .  S
O1217     Mn1251   2.111       .  S
O1217     Mn1233   2.202       .  S
Mn1218     O1223   2.128       .  S
Mn1218     O1836   2.140       .  S
O1220     Mn1227   2.074       .  S
O1220      C1222   1.262       .  A
C1221      C1340   1.498       .  S
C1221      O1247   1.253       .  A
C1221      O1234   1.233       .  A
C1222      C1441   1.487       .  S
O1223      C1248   1.258       .  A
O1224     Mn1227   2.106       .  S
O1224     Mn1246   2.122       .  S
O1225     Mn1229   1.971       .  S
O1225     Mn1251   1.978       .  S
O1225      C1248   1.218       .  S
C1226      C1301   1.520       .  S
C1226      O1228   1.274       .  A
Mn1227     O1240   2.079       .  S
Mn1227     O1820   2.013   1_545  S
Mn1227     O1828   1.967   1_545  S
O1228     Mn1251   2.110       .  S
Mn1229     O1245   2.063       .  S
Mn1229     O1239   2.007       .  S
O1230     Mn1235   2.113       .  S
O1230      C1818   1.270   1_545  A
C1231      C1287   1.508       .  S
C1231      O1249   1.261       .  A
C1232      C1329   1.481       .  S
C1232      O1816   1.271       .  A
C1232      O1245   1.261       .  A
Mn1233     O1835   2.151       .  S
O1234     Mn1813   2.000       .  S
O1234     Mn1237   2.004       .  S
Mn1235     O1797   2.118   1_545  S
Mn1235     O1253   1.957       .  S
C1236      C1354   1.517       .  S
C1236      O1795   1.273       .  A
Mn1237     O1244   2.117       .  S
Mn1237     O1252   2.088       .  S
Mn1237     O1242   1.986       .  S
C1238      C1273   1.527       .  S
C1238      O1254   1.270       .  A
O1239     Mn1251   2.010       .  S
O1239      C1241   1.235       .  A
C1241      C1424   1.502       .  S
O1242     Mn1813   1.973       .  S
O1243     Mn1246   2.102       .  S
C1248      C1399   1.506       .  S
O1249     Mn1819   2.150   1_545  S
O1250     Mn1804   2.146   1_545  S
O1250      C1255   1.261       .  A
Mn1251     O1254   2.092       .  S
O1253      C1255   1.213       .  S
C1255      C1256   1.506       .  S
C1256      C1257   1.417   1_655  A
C1256      C1261   1.425       .  A
C1257      C1258   1.421       .  A
C1258      C1259   1.418   1_455  A
C1259      C1260   1.412       .  A
C1260      C1261   1.409       .  A
C1260      C1263   1.455       .  S
C1261      C1264   1.452       .  S
C1262      N1269   1.156       .  T
C1263      N1268   1.157       .  T
C1264      N1266   1.158       .  T
C1265      N1267   1.158       .  T
C1270      C1275   1.406       .  A
C1271      C1272   1.415       .  A
C1271      C1276   1.454       .  S
C1272      C1279   1.446       .  S
C1273      C1274   1.433       .  A
C1274      C1275   1.418       .  A
C1274      C1277   1.452       .  S
C1275      C1278   1.453       .  S
C1276      N1283   1.157       .  T
C1277      N1282   1.158       .  T
C1278      N1280   1.157       .  T
C1279      N1281   1.156       .  T
C1284      C1285   1.418       .  A
C1285      C1286   1.422       .  A
C1285      C1290   1.450       .  S
C1286      C1287   1.417       .  A
C1286      C1293   1.448       .  S
C1288      C1289   1.409       .  A
C1288      C1291   1.454       .  S
C1289      C1292   1.456       .  S
C1290      N1297   1.158       .  T
C1291      N1296   1.158       .  T
C1292      N1294   1.158       .  T
C1293      N1295   1.156   1_545  T
C1298      C1303   1.406       .  A
C1299      C1300   1.417       .  A
C1299      C1304   1.453       .  S
C1300      C1307   1.451       .  S
C1301      C1302   1.428       .  A
C1302      C1303   1.413       .  A
C1302      C1305   1.450       .  S
C1303      C1306   1.454       .  S
C1304      N1311   1.158       .  T
C1305      N1310   1.157       .  T
C1306      N1308   1.157       .  T
C1307      N1309   1.158       .  T
C1312      C1606   1.412   1_655  A
C1312      C1610   1.411       .  A
C1313      C1605   1.412   1_454  A
C1313      C1314   1.413       .  A
C1313      C1611   1.451   1_554  S
C1314      C1315   1.412   1_455  A
C1314      C1321   1.450       .  S
C1315      C1316   1.412       .  A
C1316      C1317   1.413       .  A
C1316      C1319   1.451       .  S
C1317      C1605   1.411   1_554  A
C1317      C1320   1.451   1_554  S
C1318      C1606   1.451       .  S
C1318      N1325   1.157       .  T
C1319      N1324   1.157       .  T
C1320      N1615   1.157       .  T
N1322      C1613   1.157       .  T
C1326      C1327   1.413       .  A
C1326      C1331   1.415       .  A
C1327      C1328   1.413       .  A
C1327      C1332   1.450       .  S
C1328      C1329   1.412       .  A
C1328      C1335   1.446       .  S
C1329      C1330   1.413       .  A
C1330      C1331   1.404       .  A
C1330      C1333   1.454       .  S
C1331      C1334   1.454       .  S
C1332      N1925   1.157       .  T
C1333      N1338   1.157       .  T
C1334      N1336   1.157       .  T
C1335      N1923   1.156       .  T
N1337      C1921   1.156   1_545  T
N1339      C1918   1.158       .  T
C1340      C1341   1.415       .  A
C1340      C1345   1.423       .  A
C1341      C1342   1.419       .  A
C1341      C1346   1.450       .  S
C1342      C1343   1.424       .  A
C1342      C1349   1.450       .  S
C1343      C1344   1.420       .  A
C1344      C1345   1.397       .  A
C1344      C1347   1.458       .  S
C1345      C1348   1.458       .  S
C1346      N1353   1.157       .  T
C1347      N1352   1.158       .  T
C1348      N1350   1.158       .  T
C1349      N1351   1.158       .  T
C1354      C1355   1.428       .  A
C1354      C1359   1.433       .  A
C1355      C1356   1.414       .  A
C1355      C1946   1.451       .  S
C1356      C1357   1.406       .  A
C1356      C1949   1.453       .  S
C1357      C1358   1.403       .  A
C1358      C1359   1.412       .  A
C1358      C1361   1.454       .  S
C1359      C1362   1.452       .  S
C1360      C1941   1.451       .  S
C1360      N1367   1.158       .  T
C1361      N1366   1.157       .  T
C1362      N1364   1.157       .  T
C1363      C1942   1.454       .  S
C1363      N1365   1.157       .  T
C1368      C1369   1.415       .  A
C1368      C1373   1.410       .  A
C1369      C1370   1.417       .  A
C1369      C1374   1.451       .  S
C1370      C1371   1.419       .  A
C1370      C1377   1.450       .  S
C1371      C1372   1.422       .  A
C1372      C1373   1.405       .  A
C1372      C1961   1.449       .  S
C1373      C1962   1.456       .  S
C1374      N1381   1.158       .  T
C1375      C1958   1.450       .  S
C1375      N1380   1.157       .  T
C1376      C1959   1.457       .  S
C1376      N1378   1.157       .  T
C1382      C1676   1.410       .  A
C1382      C2266   1.410       .  A
C1383      C1675   1.410   1_554  A
C1383      C1384   1.409       .  A
C1383      C1681   1.451   1_554  S
C1384      C1385   1.411       .  A
C1384      C1391   1.451       .  S
C1385      C1972   1.410       .  A
C1386      C1971   1.409   1_545  A
C1386      C1387   1.407       .  A
C1386      C1389   1.450       .  S
C1387      C2261   1.410   1_545  A
C1387      C1390   1.451   1_554  S
C1388      C1676   1.451       .  S
C1388      N1395   1.157       .  T
C1389      N1394   1.157       .  T
C1390      N1685   1.157       .  T
C1391      N1393   1.157       .  T
N1392      C1683   1.157       .  T
C1396      C1397   1.415       .  A
C1396      C1401   1.416       .  A
C1397      C1398   1.420       .  A
C1397      C1402   1.450       .  S
C1398      C1399   1.419       .  A
C1398      C1405   1.448       .  S
C1399      C1400   1.423       .  A
C1400      C1401   1.409       .  A
C1400      C1403   1.451       .  S
C1401      C1404   1.456       .  S
C1402      N1409   1.157       .  T
C1403      N1408   1.157       .  T
C1404      N1406   1.158       .  T
C1405      N1407   1.157       .  T
C1410      C1411   1.428       .  A
C1410      C1415   1.431       .  A
C1411      C1412   1.412       .  A
C1411      C1416   1.451       .  S
C1412      C1413   1.406       .  A
C1412      C1419   1.453       .  S
C1413      C1414   1.404       .  A
C1414      C1415   1.412       .  A
C1414      C1417   1.454       .  S
C1415      C1418   1.451       .  S
C1416      N1423   1.158       .  T
C1417      N1422   1.158       .  T
C1418      N1420   1.157       .  T
C1419      N1421   1.157       .  T
C1424      C1425   1.414       .  A
C1424      C1429   1.423       .  A
C1425      C1426   1.420       .  A
C1425      C1430   1.449       .  S
C1426      C1427   1.427       .  A
C1426      C1433   1.451       .  S
C1427      C1428   1.423       .  A
C1428      C1429   1.400       .  A
C1428      C1431   1.457       .  S
C1429      C1432   1.458       .  S
C1430      N1437   1.157       .  T
C1431      N1436   1.158       .  T
C1432      N1434   1.158       .  T
C1433      N1435   1.158       .  T
C1438      C1439   1.418       .  A
C1438      C1443   1.415       .  A
C1439      C1440   1.406       .  A
C1439      C1444   1.454       .  S
C1440      C1441   1.414       .  A
C1440      C1447   1.453       .  S
C1441      C1442   1.411       .  A
C1442      C1443   1.415       .  A
C1442      C1445   1.445       .  S
C1443      C1446   1.449       .  S
C1444      N1451   1.158       .  T
C1445      N1450   1.156       .  T
C1446      N1448   1.157       .  T
C1447      N1449   1.157       .  T
C1452      C1453   1.412       .  A
C1452      C1457   1.415       .  A
C1453      C1454   1.410       .  A
C1453      C1458   1.452       .  S
C1454      C1748   1.416   1_554  A
C1454      C1461   1.451   1_554  S
C1455      C1747   1.416       .  A
C1455      C1749   1.414       .  A
C1456      C1748   1.414   1_554  A
C1456      C1457   1.413       .  A
C1456      C1752   1.451       .  S
C1457      C1460   1.452       .  S
C1458      N1465   1.157       .  T
C1459      C1749   1.451       .  S
C1459      N1464   1.157       .  T
C1460      N1462   1.158       .  T
C1461      N1756   1.157       .  T
N1463      C1754   1.157       .  T
C1466      N1467   1.350       .  A
C1466      N1471   1.359       .  A
C1466      C1731   1.494       .  S
N1467      C1468   1.351       .  A
C1468      N1469   1.357       .  A
C1468      C1720   1.511       .  S
N1469      C1470   1.362       .  A
C1470      N1471   1.365       .  A
C1470      C1745   1.487       .  S
C1472      N1473   1.354       .  A
C1472      N1477   1.350       .  A
C1472      C1706   1.476       .  S
N1473      C1474   1.362       .  A
C1474      N1475   1.367       .  A
C1474      C1748   1.490       .  S
N1475      C1476   1.363       .  A
C1476      N1477   1.355       .  A
C1476      C1689   1.500       .  S
C1478      N1479   1.352       .  A
C1478      N1483   1.356       .  A
C1478      C1650   1.478       .  S
N1479      C1480   1.356       .  A
C1480      N1481   1.357       .  A
C1480      C1661   1.491       .  S
N1481      C1482   1.360       .  A
C1482      N1483   1.361       .  A
C1482      C1678   1.472       .  S
C1484      N1485   1.356       .  A
C1484      N1489   1.347       .  A
C1484      C1619   1.485       .  S
N1485      C1486   1.362       .  A
C1486      N1487   1.361       .  A
C1486      C1675   1.470       .  S
N1487      C1488   1.356       .  A
C1488      N1489   1.349       .  A
C1488      C1636   1.507       .  S
C1490      N1491   1.357       .  A
C1490      N1495   1.352       .  A
C1490      C1591   1.485       .  S
N1491      C1492   1.363       .  A
C1492      N1493   1.365       .  A
C1492      C1608   1.484       .  S
N1493      C1494   1.363       .  A
C1494      N1495   1.356       .  A
C1494      C1577   1.505       .  S
C1496      N1497   1.356       .  A
C1496      N1501   1.360       .  A
C1496      C1563   1.487       .  S
N1497      C1498   1.360       .  A
C1498      N1499   1.360       .  A
C1498      C1552   1.500       .  S
N1499      C1500   1.362       .  A
C1500      N1501   1.363       .  A
C1500      C1605   1.483       .  S
O1502     Mn1528   2.095       .  S
O1502      C2115   1.270   1_545  A
C1503      C1703   1.514       .  S
C1503      O1536   1.272       .  A
C1503      O1533   1.267       .  A
O1504     Mn1511   2.169       .  S
O1504     Mn1522   2.104       .  S
O1504     Mn1526   2.173       .  S
O1504     Mn2114   2.124       .  S
O1505     Mn1539   2.118       .  S
O1505      C1515   1.271       .  A
O1506     Mn1522   2.078       .  S
O1506      C1529   1.267       .  A
O1507     Mn1526   2.138       .  S
O1507      C1534   1.255       .  A
O1508     Mn1528   1.955       .  S
O1508      C1524   1.212       .  S
C1509      C1664   1.500       .  S
C1509      O1512   1.257       .  A
C1509      O1535   1.220       .  S
O1510     Mn1511   2.199       .  S
O1510     Mn1544   2.111       .  S
O1510     Mn1526   2.202       .  S
Mn1511     O1516   2.128       .  S
Mn1511     O2129   2.140       .  S
O1513     Mn1520   2.074       .  S
O1513      C1515   1.262       .  A
C1514      C1633   1.498       .  S
C1514      O1540   1.253       .  A
C1514      O1527   1.233       .  A
C1515      C1734   1.487       .  S
O1516      C1541   1.258       .  A
O1517     Mn1520   2.106       .  S
O1517     Mn1539   2.122       .  S
O1518     Mn1522   1.971       .  S
O1518     Mn1544   1.978       .  S
O1518      C1541   1.218       .  S
C1519      C1594   1.520       .  S
C1519      O1521   1.274       .  A
Mn1520     O1533   2.079       .  S
Mn1520     O2113   2.013   1_545  S
Mn1520     O2121   1.967   1_545  S
O1521     Mn1544   2.110       .  S
Mn1522     O1538   2.063       .  S
Mn1522     O1532   2.006       .  S
O1523     Mn1528   2.113       .  S
O1523      C2111   1.270   1_545  A
C1524      C1580   1.509       .  S
C1524      O1542   1.261       .  A
C1525      C1622   1.481       .  S
C1525      O2109   1.271       .  A
C1525      O1538   1.261       .  A
Mn1526     O2128   2.151       .  S
O1527     Mn2106   2.000       .  S
O1527     Mn1530   2.004       .  S
Mn1528     O2090   2.118   1_545  S
Mn1528     O1546   1.957       .  S
C1529      C1647   1.517       .  S
C1529      O2088   1.273       .  A
Mn1530     O1537   2.117       .  S
Mn1530     O1545   2.088       .  S
Mn1530     O1535   1.986       .  S
C1531      C1566   1.527       .  S
C1531      O1547   1.270       .  A
O1532     Mn1544   2.010       .  S
O1532      C1534   1.234       .  A
C1534      C1717   1.502       .  S
O1535     Mn2106   1.973       .  S
O1536     Mn1539   2.102       .  S
C1541      C1692   1.506       .  S
O1542     Mn2112   2.150   1_545  S
O1543     Mn2097   2.146   1_545  S
O1543      C1548   1.261       .  A
Mn1544     O1547   2.093       .  S
O1546      C1548   1.213       .  S
C1548      C1549   1.506       .  S
C1549      C1550   1.417   1_655  A
C1549      C1554   1.425       .  A
C1550      C1551   1.421       .  A
C1551      C1552   1.418   1_455  A
C1552      C1553   1.412       .  A
C1553      C1554   1.409       .  A
C1553      C1556   1.455       .  S
C1554      C1557   1.452       .  S
C1555      N1562   1.156       .  T
C1556      N1561   1.157       .  T
C1557      N1559   1.158       .  T
C1558      N1560   1.158       .  T
C1563      C1568   1.406       .  A
C1564      C1565   1.415       .  A
C1564      C1569   1.454       .  S
C1565      C1572   1.446       .  S
C1566      C1567   1.433       .  A
C1567      C1568   1.418       .  A
C1567      C1570   1.452       .  S
C1568      C1571   1.453       .  S
C1569      N1576   1.157       .  T
C1570      N1575   1.158       .  T
C1571      N1573   1.157       .  T
C1572      N1574   1.156       .  T
C1577      C1578   1.418       .  A
C1578      C1579   1.422       .  A
C1578      C1583   1.450       .  S
C1579      C1580   1.417       .  A
C1579      C1586   1.448       .  S
C1581      C1582   1.409       .  A
C1581      C1584   1.454       .  S
C1582      C1585   1.456       .  S
C1583      N1590   1.158       .  T
C1584      N1589   1.158       .  T
C1585      N1587   1.158       .  T
C1586      N1588   1.156   1_545  T
C1591      C1596   1.406       .  A
C1592      C1593   1.417       .  A
C1592      C1597   1.453       .  S
C1593      C1600   1.451       .  S
C1594      C1595   1.428       .  A
C1595      C1596   1.413       .  A
C1595      C1598   1.450       .  S
C1596      C1599   1.454       .  S
C1597      N1604   1.158       .  T
C1598      N1603   1.157       .  T
C1599      N1601   1.157       .  T
C1600      N1602   1.158       .  T
C1606      C1607   1.413       .  A
C1607      C1608   1.412   1_455  A
C1607      C1614   1.450       .  S
C1608      C1609   1.412       .  A
C1609      C1610   1.413       .  A
C1609      C1612   1.451       .  S
C1610      C1613   1.451       .  S
C1611      N1618   1.157       .  T
C1612      N1617   1.157       .  T
C1619      C1620   1.413       .  A
C1619      C1624   1.415       .  A
C1620      C1621   1.413       .  A
C1620      C1625   1.450       .  S
C1621      C1622   1.412       .  A
C1621      C1628   1.446       .  S
C1622      C1623   1.413       .  A
C1623      C1624   1.404       .  A
C1623      C1626   1.454       .  S
C1624      C1627   1.454       .  S
C1625      N2218   1.157       .  T
C1626      N1631   1.157       .  T
C1627      N1629   1.157       .  T
C1628      N2216   1.156       .  T
N1630      C2214   1.156   1_545  T
N1632      C2211   1.158       .  T
C1633      C1634   1.415       .  A
C1633      C1638   1.423       .  A
C1634      C1635   1.419       .  A
C1634      C1639   1.450       .  S
C1635      C1636   1.424       .  A
C1635      C1642   1.450       .  S
C1636      C1637   1.421       .  A
C1637      C1638   1.397       .  A
C1637      C1640   1.458       .  S
C1638      C1641   1.458       .  S
C1639      N1646   1.157       .  T
C1640      N1645   1.158       .  T
C1641      N1643   1.158       .  T
C1642      N1644   1.158       .  T
C1647      C1648   1.428       .  A
C1647      C1652   1.433       .  A
C1648      C1649   1.414       .  A
C1648      C2239   1.451       .  S
C1649      C1650   1.406       .  A
C1649      C2242   1.453       .  S
C1650      C1651   1.403       .  A
C1651      C1652   1.412       .  A
C1651      C1654   1.454       .  S
C1652      C1655   1.452       .  S
C1653      C2234   1.451       .  S
C1653      N1660   1.158       .  T
C1654      N1659   1.157       .  T
C1655      N1657   1.157       .  T
C1656      C2235   1.454       .  S
C1656      N1658   1.157       .  T
C1661      C1662   1.415       .  A
C1661      C1666   1.410       .  A
C1662      C1663   1.417       .  A
C1662      C1667   1.451       .  S
C1663      C1664   1.419       .  A
C1663      C1670   1.450       .  S
C1664      C1665   1.422       .  A
C1665      C1666   1.405       .  A
C1665      C2254   1.449       .  S
C1666      C2255   1.456       .  S
C1667      N1674   1.158       .  T
C1668      C2251   1.450       .  S
C1668      N1673   1.157       .  T
C1669      C2252   1.457       .  S
C1669      N1671   1.157       .  T
C1675      C1973   1.410   1_556  A
C1676      C1677   1.409       .  A
C1677      C1678   1.411       .  A
C1677      C1684   1.451       .  S
C1678      C2265   1.410       .  A
C1679      C2264   1.409   1_545  A
C1679      C1680   1.407       .  A
C1679      C1682   1.450       .  S
C1680      C1968   1.410   1_545  A
C1680      C1683   1.451       .  S
C1681      N1688   1.157       .  T
C1682      N1687   1.157       .  T
C1684      N1686   1.157       .  T
C1689      C1690   1.415       .  A
C1689      C1694   1.416       .  A
C1690      C1691   1.420       .  A
C1690      C1695   1.451       .  S
C1691      C1692   1.419       .  A
C1691      C1698   1.448       .  S
C1692      C1693   1.423       .  A
C1693      C1694   1.409       .  A
C1693      C1696   1.451       .  S
C1694      C1697   1.456       .  S
C1695      N1702   1.157       .  T
C1696      N1701   1.157       .  T
C1697      N1699   1.158       .  T
C1698      N1700   1.157       .  T
C1703      C1704   1.428       .  A
C1703      C1708   1.431       .  A
C1704      C1705   1.412       .  A
C1704      C1709   1.451       .  S
C1705      C1706   1.406       .  A
C1705      C1712   1.453       .  S
C1706      C1707   1.404       .  A
C1707      C1708   1.412       .  A
C1707      C1710   1.454       .  S
C1708      C1711   1.451       .  S
C1709      N1716   1.158       .  T
C1710      N1715   1.158       .  T
C1711      N1713   1.157       .  T
C1712      N1714   1.157       .  T
C1717      C1718   1.414       .  A
C1717      C1722   1.423       .  A
C1718      C1719   1.420       .  A
C1718      C1723   1.449       .  S
C1719      C1720   1.427       .  A
C1719      C1726   1.451       .  S
C1720      C1721   1.423       .  A
C1721      C1722   1.400       .  A
C1721      C1724   1.457       .  S
C1722      C1725   1.458       .  S
C1723      N1730   1.157       .  T
C1724      N1729   1.158       .  T
C1725      N1727   1.158       .  T
C1726      N1728   1.158       .  T
C1731      C1732   1.418       .  A
C1731      C1736   1.415       .  A
C1732      C1733   1.406       .  A
C1732      C1737   1.454       .  S
C1733      C1734   1.414       .  A
C1733      C1740   1.453       .  S
C1734      C1735   1.411       .  A
C1735      C1736   1.415       .  A
C1735      C1738   1.445       .  S
C1736      C1739   1.449       .  S
C1737      N1744   1.158       .  T
C1738      N1743   1.156       .  T
C1739      N1741   1.157       .  T
C1740      N1742   1.157       .  T
C1745      C1746   1.412       .  A
C1745      C1750   1.415       .  A
C1746      C1747   1.410       .  A
C1746      C1751   1.452       .  S
C1747      C1754   1.451       .  S
C1749      C1750   1.413       .  A
C1750      C1753   1.452       .  S
C1751      N1758   1.157       .  T
C1752      N1757   1.157   1_554  T
C1753      N1755   1.158       .  T
C1759      N1760   1.348       .  A
C1759      N1764   1.355       .  A
C1759      C2024   1.488       .  S
N1760      C1761   1.350       .  A
C1761      N1762   1.356       .  A
C1761      C2013   1.508       .  S
N1762      C1763   1.362       .  A
C1763      N1764   1.363       .  A
C1763      C2038   1.485       .  S
C1765      N1766   1.354       .  A
C1765      N1770   1.351       .  A
C1765      C1999   1.475       .  S
N1766      C1767   1.361       .  A
C1767      N1768   1.363       .  A
C1767      C2041   1.486       .  S
N1768      C1769   1.358       .  A
C1769      N1770   1.356       .  A
C1769      C1982   1.497       .  S
C1771      N1772   1.351       .  A
C1771      N1776   1.354       .  A
C1771      C1943   1.474       .  S
N1772      C1773   1.356       .  A
C1773      N1774   1.358       .  A
C1773      C1954   1.491       .  S
N1774      C1775   1.360       .  A
C1775      N1776   1.359       .  A
C1775      C1971   1.470       .  S
C1777      N1778   1.355       .  A
C1777      N1782   1.349       .  A
C1777      C1912   1.489       .  S
N1778      C1779   1.362       .  A
C1779      N1780   1.361       .  A
C1779      C1968   1.469       .  S
N1780      C1781   1.356       .  A
C1781      N1782   1.351       .  A
C1781      C1929   1.508       .  S
C1783      N1784   1.358       .  A
C1783      N1788   1.355       .  A
C1783      C1884   1.487       .  S
N1784      C1785   1.363       .  A
C1785      N1786   1.364       .  A
C1785      C1901   1.484       .  S
N1786      C1787   1.361       .  A
C1787      N1788   1.359       .  A
C1787      C1870   1.504       .  S
C1789      N1790   1.353       .  A
C1789      N1794   1.358       .  A
C1789      C1856   1.484       .  S
N1790      C1791   1.357       .  A
C1791      N1792   1.360       .  A
C1791      C1845   1.497       .  S
N1792      C1793   1.363       .  A
C1793      N1794   1.363       .  A
C1793      C1898   1.484       .  S
O1795     Mn1821   2.111       .  S
C1796      C1996   1.514       .  S
C1796      O1829   1.271       .  A
C1796      O1826   1.267       .  A
O1797     Mn1804   2.168       .  S
O1797     Mn1815   2.108       .  S
O1797     Mn1819   2.176       .  S
O1798     Mn1832   2.114       .  S
O1798      C1808   1.270       .  A
O1799     Mn1815   2.084       .  S
O1799      C1822   1.268       .  A
O1800     Mn1819   2.133       .  S
O1800      C1827   1.254       .  A
O1801     Mn1821   1.961       .  S
O1801      C1817   1.212       .  S
C1802      C1957   1.501       .  S
C1802      O1805   1.258       .  A
C1802      O1828   1.217       .  S
O1803     Mn1804   2.196       .  S
O1803     Mn1837   2.116       .  S
O1803     Mn1819   2.200       .  S
Mn1804     O1809   2.127       .  S
O1806     Mn1813   2.064       .  S
O1806      C1808   1.260       .  A
C1807      C1926   1.502       .  S
C1807      O1833   1.255       .  A
C1807      O1820   1.237       .  A
C1808      C2027   1.480       .  S
O1809      C1834   1.259       .  A
O1810     Mn1813   2.110       .  S
O1810     Mn1832   2.120       .  S
O1811     Mn1815   1.971       .  S
O1811     Mn1837   1.981       .  S
O1811      C1834   1.218       .  S
C1812      C1887   1.525       .  S
C1812      O1814   1.273       .  A
Mn1813     O1826   2.080       .  S
O1814     Mn1837   2.112       .  S
Mn1815     O1831   2.066       .  S
Mn1815     O1825   2.005       .  S
O1816     Mn1821   2.117       .  S
C1817      C1873   1.509       .  S
C1817      O1835   1.262       .  A
C1818      C1915   1.481       .  S
C1818      O1831   1.260       .  A
O1820     Mn1823   2.016       .  S
Mn1821     O1839   1.961       .  S
C1822      C1940   1.513       .  S
Mn1823     O1830   2.111       .  S
Mn1823     O1838   2.092       .  S
Mn1823     O1828   1.978       .  S
C1824      C1859   1.524       .  S
C1824      O1840   1.270       .  A
O1825     Mn1837   2.009       .  S
O1825      C1827   1.234       .  A
C1827      C2010   1.500       .  S
O1829     Mn1832   2.100       .  S
C1834      C1985   1.504       .  S
O1836      C1841   1.260       .  A
Mn1837     O1840   2.093       .  S
O1839      C1841   1.213       .  S
C1841      C1842   1.503       .  S
C1842      C1843   1.417   1_655  A
C1842      C1847   1.423       .  A
C1843      C1844   1.420       .  A
C1844      C1845   1.416   1_455  A
C1845      C1846   1.413       .  A
C1846      C1847   1.407       .  A
C1846      C1849   1.455       .  S
C1847      C1850   1.453       .  S
C1848      N1855   1.156       .  T
C1849      N1854   1.157       .  T
C1850      N1852   1.158       .  T
C1851      N1853   1.158       .  T
C1856      C1861   1.407       .  A
C1857      C1858   1.414       .  A
C1857      C1862   1.454       .  S
C1858      C1865   1.447       .  S
C1859      C1860   1.432       .  A
C1860      C1861   1.417       .  A
C1860      C1863   1.452       .  S
C1861      C1864   1.453       .  S
C1862      N1869   1.157       .  T
C1863      N1868   1.157       .  T
C1864      N1866   1.158       .  T
C1865      N1867   1.156       .  T
C1870      C1871   1.418       .  A
C1871      C1872   1.422       .  A
C1871      C1876   1.449       .  S
C1872      C1873   1.417       .  A
C1872      C1879   1.449       .  S
C1874      C1875   1.410       .  A
C1874      C1877   1.452       .  S
C1875      C1878   1.456       .  S
C1876      N1883   1.157       .  T
C1877      N1882   1.158       .  T
C1878      N1880   1.157       .  T
C1879      N1881   1.156       .  T
C1884      C1889   1.403       .  A
C1885      C1886   1.418       .  A
C1885      C1890   1.452       .  S
C1886      C1893   1.452       .  S
C1887      C1888   1.430       .  A
C1888      C1889   1.414       .  A
C1888      C1891   1.447       .  S
C1889      C1892   1.454       .  S
C1890      N1897   1.157       .  T
C1891      N1896   1.156       .  T
C1892      N1894   1.157       .  T
C1893      N1895   1.158       .  T
C1898      C2192   1.412   1_655  A
C1898      C2196   1.412       .  A
C1899      C2191   1.412   1_454  A
C1899      C1900   1.412       .  A
C1899      C2197   1.451       .  S
C1900      C1901   1.412   1_455  A
C1900      C1907   1.450       .  S
C1901      C1902   1.413       .  A
C1902      C1903   1.413       .  A
C1902      C1905   1.451       .  S
C1903      C2191   1.412   1_554  A
C1903      C1906   1.451   1_554  S
C1904      C2192   1.451       .  S
C1904      N1911   1.157       .  T
C1905      N1910   1.157       .  T
C1906      N2201   1.157       .  T
N1908      C2199   1.157       .  T
C1912      C1913   1.415       .  A
C1912      C1917   1.417       .  A
C1913      C1914   1.413       .  A
C1913      C1918   1.449   1_565  S
C1914      C1915   1.411       .  A
C1914      C1921   1.448       .  S
C1915      C1916   1.413       .  A
C1916      C1917   1.405       .  A
C1916      C1919   1.454       .  S
C1917      C1920   1.454       .  S
C1919      N1924   1.158       .  T
C1920      N1922   1.157       .  T
C1926      C1927   1.417       .  A
C1926      C1931   1.423       .  A
C1927      C1928   1.421       .  A
C1927      C1932   1.449       .  S
C1928      C1929   1.425       .  A
C1928      C1935   1.450       .  S
C1929      C1930   1.419       .  A
C1930      C1931   1.397       .  A
C1930      C1933   1.457       .  S
C1931      C1934   1.456       .  S
C1932      N1939   1.157       .  T
C1933      N1938   1.157   1_565  T
C1934      N1936   1.158       .  T
C1935      N1937   1.158       .  T
C1940      C1941   1.429   1_565  A
C1940      C1945   1.430       .  A
C1941      C1942   1.411       .  A
C1942      C1943   1.404   1_545  A
C1943      C1944   1.403       .  A
C1944      C1945   1.411       .  A
C1944      C1947   1.454       .  S
C1945      C1948   1.450       .  S
C1946      N1953   1.158       .  T
C1947      N1952   1.157       .  T
C1948      N1950   1.157       .  T
C1949      N1951   1.157       .  T
C1954      C1955   1.415       .  A
C1954      C1959   1.412   1_565  A
C1955      C1956   1.417       .  A
C1955      C1960   1.451       .  S
C1956      C1957   1.417       .  A
C1956      C1963   1.449       .  S
C1957      C1958   1.423   1_565  A
C1958      C1959   1.406       .  A
C1960      N1967   1.158       .  T
C1961      N1966   1.158       .  T
C1962      N1964   1.157       .  T
C1968      C2262   1.410       .  A
C1969      C2261   1.410       .  A
C1969      C1970   1.407       .  A
C1969      C2267   1.451   1_554  S
C1970      C1971   1.410       .  A
C1970      C1977   1.451       .  S
C1972      C1973   1.407       .  A
C1972      C1975   1.451       .  S
C1973      C1976   1.451   1_554  S
C1974      C2262   1.451       .  S
C1974      N1981   1.157       .  T
C1975      N1980   1.157       .  T
C1976      N2271   1.157       .  T
C1977      N1979   1.157       .  T
N1978      C2269   1.157       .  T
C1982      C1983   1.416       .  A
C1982      C1987   1.413       .  A
C1983      C1984   1.418       .  A
C1983      C1988   1.451       .  S
C1984      C1985   1.418       .  A
C1984      C1991   1.448       .  S
C1985      C1986   1.424       .  A
C1986      C1987   1.407       .  A
C1986      C1989   1.451       .  S
C1987      C1990   1.456       .  S
C1988      N1995   1.157       .  T
C1989      N1994   1.158       .  T
C1990      N1992   1.158       .  T
C1991      N1993   1.156       .  T
C1996      C1997   1.428       .  A
C1996      C2001   1.431       .  A
C1997      C1998   1.412       .  A
C1997      C2002   1.451       .  S
C1998      C1999   1.405       .  A
C1998      C2005   1.453       .  S
C1999      C2000   1.403       .  A
C2000      C2001   1.411       .  A
C2000      C2003   1.454       .  S
C2001      C2004   1.450       .  S
C2002      N2009   1.158       .  T
C2003      N2008   1.158       .  T
C2004      N2006   1.157       .  T
C2005      N2007   1.157       .  T
C2010      C2011   1.414       .  A
C2010      C2015   1.423       .  A
C2011      C2012   1.419       .  A
C2011      C2016   1.450       .  S
C2012      C2013   1.426       .  A
C2012      C2019   1.450       .  S
C2013      C2014   1.421       .  A
C2014      C2015   1.399       .  A
C2014      C2017   1.458       .  S
C2015      C2018   1.457       .  S
C2016      N2023   1.157       .  T
C2017      N2022   1.158       .  T
C2018      N2020   1.158       .  T
C2019      N2021   1.158       .  T
C2024      C2025   1.417       .  A
C2024      C2029   1.415       .  A
C2025      C2026   1.404       .  A
C2025      C2030   1.454       .  S
C2026      C2027   1.413       .  A
C2026      C2033   1.453       .  S
C2027      C2028   1.410       .  A
C2028      C2029   1.412       .  A
C2028      C2031   1.447       .  S
C2029      C2032   1.449       .  S
C2030      N2037   1.157       .  T
C2031      N2036   1.156       .  T
C2032      N2034   1.158       .  T
C2033      N2035   1.158       .  T
C2038      C2039   1.415       .  A
C2038      C2043   1.415       .  A
C2039      C2040   1.409       .  A
C2039      C2044   1.453       .  S
C2040      C2334   1.416   1_554  A
C2040      C2047   1.452   1_554  S
C2041      C2333   1.416       .  A
C2041      C2335   1.414       .  A
C2042      C2334   1.414   1_554  A
C2042      C2043   1.409       .  A
C2042      C2338   1.452       .  S
C2043      C2046   1.453       .  S
C2044      N2051   1.157       .  T
C2045      C2335   1.453       .  S
C2045      N2050   1.157       .  T
C2046      N2048   1.158       .  T
C2047      N2342   1.158       .  T
N2049      C2340   1.158       .  T
C2052      N2053   1.348       .  A
C2052      N2057   1.355       .  A
C2052      C2317   1.489       .  S
N2053      C2054   1.350       .  A
C2054      N2055   1.356       .  A
C2054      C2306   1.508       .  S
N2055      C2056   1.362       .  A
C2056      N2057   1.363       .  A
C2056      C2331   1.485       .  S
C2058      N2059   1.354       .  A
C2058      N2063   1.351       .  A
C2058      C2292   1.475       .  S
N2059      C2060   1.361       .  A
C2060      N2061   1.363       .  A
C2060      C2334   1.486       .  S
N2061      C2062   1.358       .  A
C2062      N2063   1.356       .  A
C2062      C2275   1.497       .  S
C2064      N2065   1.351       .  A
C2064      N2069   1.354       .  A
C2064      C2236   1.474       .  S
N2065      C2066   1.356       .  A
C2066      N2067   1.358       .  A
C2066      C2247   1.491       .  S
N2067      C2068   1.360       .  A
C2068      N2069   1.359       .  A
C2068      C2264   1.470       .  S
C2070      N2071   1.355       .  A
C2070      N2075   1.349       .  A
C2070      C2205   1.489       .  S
N2071      C2072   1.362       .  A
C2072      N2073   1.361       .  A
C2072      C2261   1.469   1_556  S
N2073      C2074   1.356       .  A
C2074      N2075   1.351       .  A
C2074      C2222   1.508       .  S
C2076      N2077   1.358       .  A
C2076      N2081   1.355       .  A
C2076      C2177   1.487       .  S
N2077      C2078   1.363       .  A
C2078      N2079   1.364       .  A
C2078      C2194   1.485       .  S
N2079      C2080   1.361       .  A
C2080      N2081   1.360       .  A
C2080      C2163   1.504       .  S
C2082      N2083   1.353       .  A
C2082      N2087   1.358       .  A
C2082      C2149   1.484       .  S
N2083      C2084   1.357       .  A
C2084      N2085   1.360       .  A
C2084      C2138   1.497       .  S
N2085      C2086   1.363       .  A
C2086      N2087   1.363       .  A
C2086      C2191   1.484       .  S
O2088     Mn2114   2.111       .  S
C2089      C2289   1.514       .  S
C2089      O2122   1.271       .  A
C2089      O2119   1.267       .  A
O2090     Mn2097   2.168       .  S
O2090     Mn2108   2.108       .  S
O2090     Mn2112   2.176       .  S
O2091     Mn2125   2.114       .  S
O2091      C2101   1.270       .  A
O2092     Mn2108   2.084       .  S
O2092      C2115   1.268       .  A
O2093     Mn2112   2.133       .  S
O2093      C2120   1.254       .  A
O2094     Mn2114   1.962       .  S
O2094      C2110   1.212       .  S
C2095      C2250   1.501       .  S
C2095      O2098   1.258       .  A
C2095      O2121   1.217       .  S
O2096     Mn2097   2.196       .  S
O2096     Mn2130   2.116       .  S
O2096     Mn2112   2.200       .  S
Mn2097     O2102   2.127       .  S
O2099     Mn2106   2.064       .  S
O2099      C2101   1.260       .  A
C2100      C2219   1.502       .  S
C2100      O2126   1.255       .  A
C2100      O2113   1.237       .  A
C2101      C2320   1.480       .  S
O2102      C2127   1.259       .  A
O2103     Mn2106   2.110       .  S
O2103     Mn2125   2.120       .  S
O2104     Mn2108   1.970       .  S
O2104     Mn2130   1.981       .  S
O2104      C2127   1.218       .  S
C2105      C2180   1.525       .  S
C2105      O2107   1.273       .  A
Mn2106     O2119   2.080       .  S
O2107     Mn2130   2.112       .  S
Mn2108     O2124   2.067       .  S
Mn2108     O2118   2.005       .  S
O2109     Mn2114   2.117       .  S
C2110      C2166   1.509       .  S
C2110      O2128   1.262       .  A
C2111      C2208   1.481       .  S
C2111      O2124   1.260       .  A
O2113     Mn2116   2.016       .  S
Mn2114     O2132   1.961       .  S
C2115      C2233   1.513       .  S
Mn2116     O2123   2.111       .  S
Mn2116     O2131   2.092       .  S
Mn2116     O2121   1.977       .  S
C2117      C2152   1.524       .  S
C2117      O2133   1.270       .  A
O2118     Mn2130   2.010       .  S
O2118      C2120   1.234       .  A
C2120      C2303   1.500       .  S
O2122     Mn2125   2.100       .  S
C2127      C2278   1.504       .  S
O2129      C2134   1.260       .  A
Mn2130     O2133   2.093       .  S
O2132      C2134   1.213       .  S
C2134      C2135   1.503       .  S
C2135      C2136   1.417   1_655  A
C2135      C2140   1.423       .  A
C2136      C2137   1.420       .  A
C2137      C2138   1.416   1_455  A
C2138      C2139   1.413       .  A
C2139      C2140   1.407       .  A
C2139      C2142   1.455       .  S
C2140      C2143   1.453       .  S
C2141      N2148   1.156       .  T
C2142      N2147   1.157       .  T
C2143      N2145   1.158       .  T
C2144      N2146   1.158       .  T
C2149      C2154   1.407       .  A
C2150      C2151   1.414       .  A
C2150      C2155   1.454       .  S
C2151      C2158   1.447       .  S
C2152      C2153   1.432       .  A
C2153      C2154   1.417       .  A
C2153      C2156   1.452       .  S
C2154      C2157   1.453       .  S
C2155      N2162   1.157       .  T
C2156      N2161   1.157       .  T
C2157      N2159   1.158       .  T
C2158      N2160   1.156       .  T
C2163      C2164   1.418       .  A
C2164      C2165   1.422       .  A
C2164      C2169   1.449       .  S
C2165      C2166   1.417       .  A
C2165      C2172   1.449       .  S
C2167      C2168   1.410       .  A
C2167      C2170   1.452       .  S
C2168      C2171   1.456       .  S
C2169      N2176   1.157       .  T
C2170      N2175   1.158       .  T
C2171      N2173   1.157       .  T
C2172      N2174   1.156       .  T
C2177      C2182   1.404       .  A
C2178      C2179   1.418       .  A
C2178      C2183   1.452       .  S
C2179      C2186   1.452       .  S
C2180      C2181   1.430       .  A
C2181      C2182   1.414       .  A
C2181      C2184   1.447       .  S
C2182      C2185   1.454       .  S
C2183      N2190   1.157       .  T
C2184      N2189   1.156       .  T
C2185      N2187   1.157       .  T
C2186      N2188   1.158       .  T
C2192      C2193   1.412       .  A
C2193      C2194   1.412   1_455  A
C2193      C2200   1.450       .  S
C2194      C2195   1.413       .  A
C2195      C2196   1.414       .  A
C2195      C2198   1.451       .  S
C2196      C2199   1.451       .  S
C2197      N2204   1.157   1_554  T
C2198      N2203   1.157       .  T
C2205      C2206   1.415       .  A
C2205      C2210   1.417       .  A
C2206      C2207   1.413       .  A
C2206      C2211   1.449   1_565  S
C2207      C2208   1.411       .  A
C2207      C2214   1.448       .  S
C2208      C2209   1.413       .  A
C2209      C2210   1.405       .  A
C2209      C2212   1.454       .  S
C2210      C2213   1.454       .  S
C2212      N2217   1.158       .  T
C2213      N2215   1.157       .  T
C2219      C2220   1.417       .  A
C2219      C2224   1.423       .  A
C2220      C2221   1.421       .  A
C2220      C2225   1.449       .  S
C2221      C2222   1.425       .  A
C2221      C2228   1.450       .  S
C2222      C2223   1.419       .  A
C2223      C2224   1.397       .  A
C2223      C2226   1.457       .  S
C2224      C2227   1.456       .  S
C2225      N2232   1.157       .  T
C2226      N2231   1.157   1_565  T
C2227      N2229   1.158       .  T
C2228      N2230   1.158       .  T
C2233      C2234   1.429   1_565  A
C2233      C2238   1.430       .  A
C2234      C2235   1.411       .  A
C2235      C2236   1.404   1_545  A
C2236      C2237   1.403       .  A
C2237      C2238   1.411       .  A
C2237      C2240   1.454       .  S
C2238      C2241   1.450       .  S
C2239      N2246   1.158       .  T
C2240      N2245   1.157       .  T
C2241      N2243   1.157       .  T
C2242      N2244   1.157       .  T
C2247      C2248   1.415       .  A
C2247      C2252   1.412   1_565  A
C2248      C2249   1.417       .  A
C2248      C2253   1.451       .  S
C2249      C2250   1.417       .  A
C2249      C2256   1.449       .  S
C2250      C2251   1.423   1_565  A
C2251      C2252   1.406       .  A
C2253      N2260   1.158       .  T
C2254      N2259   1.158       .  T
C2255      N2257   1.157       .  T
C2262      C2263   1.407       .  A
C2263      C2264   1.410       .  A
C2263      C2270   1.451       .  S
C2265      C2266   1.407       .  A
C2265      C2268   1.451       .  S
C2266      C2269   1.451       .  S
C2267      N2274   1.157       .  T
C2268      N2273   1.157       .  T
C2270      N2272   1.157       .  T
C2275      C2276   1.416       .  A
C2275      C2280   1.413       .  A
C2276      C2277   1.418       .  A
C2276      C2281   1.451       .  S
C2277      C2278   1.418       .  A
C2277      C2284   1.448       .  S
C2278      C2279   1.424       .  A
C2279      C2280   1.407       .  A
C2279      C2282   1.451       .  S
C2280      C2283   1.456       .  S
C2281      N2288   1.157       .  T
C2282      N2287   1.158       .  T
C2283      N2285   1.158       .  T
C2284      N2286   1.156       .  T
C2289      C2290   1.428       .  A
C2289      C2294   1.431       .  A
C2290      C2291   1.412       .  A
C2290      C2295   1.451       .  S
C2291      C2292   1.405       .  A
C2291      C2298   1.453       .  S
C2292      C2293   1.403       .  A
C2293      C2294   1.411       .  A
C2293      C2296   1.454       .  S
C2294      C2297   1.450       .  S
C2295      N2302   1.158       .  T
C2296      N2301   1.158       .  T
C2297      N2299   1.157       .  T
C2298      N2300   1.157       .  T
C2303      C2304   1.414       .  A
C2303      C2308   1.423       .  A
C2304      C2305   1.419       .  A
C2304      C2309   1.450       .  S
C2305      C2306   1.426       .  A
C2305      C2312   1.450       .  S
C2306      C2307   1.421       .  A
C2307      C2308   1.399       .  A
C2307      C2310   1.458       .  S
C2308      C2311   1.457       .  S
C2309      N2316   1.157       .  T
C2310      N2315   1.158       .  T
C2311      N2313   1.158       .  T
C2312      N2314   1.158       .  T
C2317      C2318   1.417       .  A
C2317      C2322   1.415       .  A
C2318      C2319   1.404       .  A
C2318      C2323   1.454       .  S
C2319      C2320   1.413       .  A
C2319      C2326   1.453       .  S
C2320      C2321   1.410       .  A
C2321      C2322   1.412       .  A
C2321      C2324   1.447       .  S
C2322      C2325   1.449       .  S
C2323      N2330   1.157       .  T
C2324      N2329   1.156       .  T
C2325      N2327   1.158       .  T
C2326      N2328   1.158       .  T
C2331      C2332   1.415       .  A
C2331      C2336   1.415       .  A
C2332      C2333   1.409       .  A
C2332      C2337   1.453       .  S
C2333      C2340   1.452       .  S
C2335      C2336   1.409       .  A
C2336      C2339   1.453       .  S
C2337      N2344   1.157       .  T
C2338      N2343   1.157   1_554  T
C2339      N2341   1.158       .  T
