geometry optimzed in LAMMPS
_audit_creation_date              2020-11-30 
_audit_creation_method            'lammps2cif' 
_symmetry_space_group_name_H-M    'P1' 
_symmetry_Int_Tables_number       1 
_symmetry_cell_setting            triclinic 
loop_ 
_symmetry_equiv_pos_as_xyz 
  x,y,z 
_cell_length_a                    41.63660104 
_cell_length_b                    40.06805828579638 
_cell_length_c                    41.37404952437981 
_cell_angle_alpha                 87.17379696332198 
_cell_angle_beta                  89.53481984206732 
_cell_angle_gamma                 94.35035335928171 
loop_ 
_atom_site_label 
_atom_site_type_symbol 
_atom_site_fract_x 
_atom_site_fract_y 
_atom_site_fract_z 
_atom_site_charge 
N1          N  0.12622207  0.43077981  0.49544981    -0.01800
C2          C  0.13929811  0.41340711  0.02025894     0.00800
C3          C  0.15433012  0.38659738  0.00903410    -0.22100
C4          C  0.15040728  0.38739352  0.47617237    -0.22300
C5          C  0.13250557  0.41420701  0.46852203     0.00700
H6          H  0.16466369  0.36695946  0.02351211     0.14400
H7          H  0.15812428  0.36916901  0.45992690     0.14500
N8          N  0.33726884  0.06922256  0.99812267    -0.01800
C9          C  0.32068304  0.04028352  0.99039862     0.00800
C10         C  0.28840788  0.04058822  0.99835783    -0.22100
C11         C  0.28572555  0.06841745  0.01550317    -0.22300
C12         C  0.31645825  0.08378702  0.01752180     0.00700
H13         H  0.27038097  0.01965138  0.99830751     0.14400
H14         H  0.26517660  0.07265288  0.03056745     0.14500
N15         N  0.40628704  0.48706792  0.16269023    -0.01800
C16         C  0.42386777  0.48882296  0.19031492     0.00800
C17         C  0.41059543  0.00976290  0.21100100    -0.22100
C18         C  0.38709610  0.02494646  0.19409988    -0.22300
C19         C  0.38757070  0.01374991  0.16284456     0.00700
H20         H  0.42026627  0.01744800  0.23390937     0.14400
H21         H  0.37640022  0.04713317  0.20162537     0.14500
N22         N  0.03685400  0.99498886  0.35701775    -0.01800
C23         C  0.05714417  0.01398644  0.33627287     0.00800
C24         C  0.06905803  0.99440542  0.31317258    -0.22100
C25         C  0.05787100  0.46192784  0.32192111    -0.22300
C26         C  0.04096013  0.46260889  0.35089377     0.00700
H27         H  0.08775396  0.00191052  0.29537469     0.14400
H28         H  0.06803656  0.44023282  0.31253388     0.14500
N29         N  0.48661167  0.33855642  0.08909243    -0.01800
C30         C  0.46528940  0.34240122  0.11355765     0.00800
C31         C  0.47372768  0.32584479  0.14175890    -0.22100
C32         C  0.50115179  0.31109326  0.13495269    -0.22300
C33         C  0.00940076  0.32056809  0.10324383     0.00700
H34         H  0.46041808  0.32336147  0.16445528     0.14400
H35         H  0.01435808  0.29689409  0.15243322     0.14500
N36         N  0.46103166  0.12172971  0.43343984    -0.01800
C37         C  0.48190767  0.10842810  0.41209833     0.00800
C38         C  0.98319803  0.07461397  0.42086959    -0.22100
C39         C  0.47186557  0.07008343  0.45214625    -0.22300
C40         C  0.46133564  0.10049288  0.46014965     0.00700
H41         H  0.99947157  0.05804343  0.41057662     0.14400
H42         H  0.97675577  0.04926732  0.46853041     0.14500
N43         N  0.37580338  0.41556654  0.00834279    -0.01800
C44         C  0.39568708  0.41204212  0.48310253     0.00800
C45         C  0.42577740  0.40496473  0.49433705    -0.22100
C46         C  0.42302445  0.40068004  0.02739351    -0.22300
C47         C  0.39162007  0.40594438  0.03502824     0.00700
H48         H  0.44536988  0.39704994  0.47995178     0.14400
H49         H  0.44053958  0.39069357  0.04350237     0.14500
N50         N  0.08808362  0.06432198  0.00201336    -0.01800
C51         C  0.07403715  0.07185350  0.03012098     0.00800
C52         C  0.04400046  0.08332992  0.02507336    -0.22100
C53         C  0.04060729  0.08650287  0.49268447    -0.22300
C54         C  0.06838878  0.07669955  0.47912689     0.00700
H55         H  0.02911201  0.09422404  0.04268880     0.14400
H56         H  0.02363232  0.10168761  0.48072647     0.14500
N57         N  0.40400118  0.49011072  0.35957192    -0.01800
C58         C  0.40165368  0.46364217  0.34006644     0.00800
C59         C  0.37883383  0.46814123  0.31635487    -0.22100
C60         C  0.36416662  0.99615337  0.32335310    -0.22300
C61         C  0.37954185  0.00894539  0.34993881     0.00700
H62         H  0.37193088  0.45171474  0.29721118     0.14400
H63         H  0.34400688  0.00586857  0.31056662     0.14500
N64         N  0.04604546  0.48862981  0.13940734    -0.01800
C65         C  0.04516296  0.01892087  0.12291762     0.00800
C66         C  0.03702027  0.01405932  0.09109328    -0.22100
C67         C  0.03889343  0.48049881  0.08637870    -0.22300
C68         C  0.04723564  0.46603172  0.11574769     0.00700
H69         H  0.03653761  0.03320914  0.07198194     0.14400
H70         H  0.04091294  0.46982142  0.06297046     0.14500
N71         N  0.48323618  0.32853474  0.45107606    -0.01800
C72         C  0.45741828  0.31646504  0.43406586     0.00800
C73         C  0.46263492  0.28728115  0.41959634    -0.22100
C74         C  0.49389204  0.28202510  0.42518295    -0.22300
C75         C  0.00680862  0.30925129  0.44149709     0.00700
H76         H  0.44624979  0.27307161  0.40431860     0.14400
H77         H  0.00702239  0.26394029  0.41279345     0.14500
N78         N  0.47151608  0.14636101  0.08996051    -0.01800
C79         C  0.49446833  0.16978139  0.09979579     0.00800
C80         C  0.47996863  0.19647689  0.11208893    -0.22100
C81         C  0.44750946  0.18800232  0.11251365    -0.22300
C82         C  0.44295250  0.15642083  0.10044744     0.00700
H83         H  0.99174114  0.21733653  0.12413626     0.14400
H84         H  0.42986011  0.20076538  0.12560335     0.14500
N85         N  0.17756393  0.25138898  0.41239303    -0.01800
C86         C  0.17420963  0.28408864  0.41828222     0.00800
C87         C  0.15761646  0.28566855  0.44732126    -0.22100
C88         C  0.14605438  0.25365262  0.45656267    -0.22300
C89         C  0.15739278  0.23326385  0.43388644     0.00700
H90         H  0.14818592  0.30782481  0.45651646     0.14400
H91         H  0.12759113  0.24686539  0.47478038     0.14500
N92         N  0.15704552  0.25547606  0.13250616    -0.01800
C93         C  0.15847098  0.22580074  0.14989452     0.00800
C94         C  0.16804358  0.23188089  0.18109669    -0.22100
C95         C  0.16674467  0.26549809  0.18480698    -0.22300
C96         C  0.15711724  0.27894767  0.15548562     0.00700
H97         H  0.16954953  0.21351541  0.20072879     0.14400
H98         H  0.16599990  0.27710584  0.20786030     0.14500
N99         N  0.12555661  0.18243356  0.27222680    -0.01800
C100        C  0.13699562  0.17377123  0.24344174     0.00800
C101        C  0.16707268  0.16191522  0.24630372    -0.22100
C102        C  0.17338155  0.16042161  0.27831671    -0.22300
C103        C  0.14685503  0.17094568  0.29383247     0.00700
H104        H  0.17989729  0.14968293  0.22799201     0.14400
H105        H  0.19072457  0.14489705  0.28918296     0.14500
O106        O  0.10171291  0.05464052  0.33142171    -0.79300
O107        O  0.15183779  0.18420685  0.40476923    -0.63900
O108        O  0.12260800  0.09682601  0.38057239    -1.10500
C109        C  0.01625861  0.12381785  0.40498881     1.07600
O110        O  0.11277923  0.19271586  0.43996879    -0.77100
O111        O  0.08986380  0.12734131  0.45500839    -0.64700
Ni112      Ni  0.14086206  0.08165344  0.34156959     1.34900
C113        C  0.07994040  0.09706816  0.45082348     0.86400
O114        O  0.18351295  0.13156931  0.39186757    -0.77700
O115        O  0.18403802  0.10450592  0.34627546    -0.88000
C116        C  0.13997847  0.20112259  0.42619223     0.85900
O117        O  0.12680203  0.11932198  0.31711188    -0.66200
O118        O  0.03115254  0.14051999  0.42664610    -0.85500
C119        C  0.13638314  0.14959655  0.32184005     0.86800
C120        C  0.19882374  0.12189977  0.36744420     1.08300
H121        H  0.08851182  0.16524888  0.37421913     0.40100
O122        O  0.09252713  0.14932888  0.39174933    -1.08100
O123        O  0.07227470  0.08645302  0.42337748    -0.64800
Ni124      Ni  0.07713615  0.10546470  0.37992992     1.26300
O125        O  0.14323726  0.16005899  0.34945252    -0.65000
O126        O  0.03168970  0.11469417  0.38042749    -0.77300
C127        C  0.07465078  0.04572230  0.34526808     0.86200
O128        O  0.06319420  0.06177214  0.36763176    -0.64500
Ni129      Ni  0.07415984  0.16439425  0.43076217     1.27400
Ni130      Ni  0.13802766  0.14064063  0.39253886     1.26100
H131        H  0.12664334  0.08088133  0.39808034     0.40700
N132        N  0.37117421  0.17587388  0.26772485    -0.01800
C133        C  0.38981560  0.20430203  0.27329261     0.00800
C134        C  0.42151914  0.20132522  0.26441076    -0.22100
C135        C  0.42160551  0.17259386  0.24829555    -0.22300
C136        C  0.38998315  0.15948575  0.24773651     0.00700
H137        H  0.44084677  0.22099555  0.26291393     0.14400
H138        H  0.44108421  0.16628782  0.23276606     0.14500
N139        N  0.25305934  0.12363301  0.33786026    -0.01800
C140        C  0.23289800  0.13723626  0.35958479     0.00800
C141        C  0.23157815  0.17091734  0.35044475    -0.22100
C142        C  0.24205588  0.17496522  0.31889054    -0.22300
C143        C  0.25209123  0.14430645  0.31079651     0.00700
H144        H  0.21558209  0.18766050  0.36083284     0.14400
H145        H  0.23678294  0.19576961  0.30268860     0.14500
O146        O  0.34184076  0.04991378  0.35492666    -0.79300
O147        O  0.33264757  0.19486176  0.38099303    -0.63900
O148        O  0.36674783  0.11339207  0.35759944    -1.10500
C149        C  0.35444822  0.08912376  0.47220057     1.07600
O150        O  0.37242492  0.19653612  0.41519642    -0.77100
O151        O  0.41290990  0.14923014  0.44047608    -0.64700
Ni152      Ni  0.34577162  0.08786404  0.32508352     1.34900
C153        C  0.42732884  0.12751381  0.42536229     0.86400
O154        O  0.35312329  0.17179087  0.32253466    -0.77700
O155        O  0.35166011  0.12514427  0.29381696    -0.88000
C156        C  0.34658970  0.20832969  0.40472054     0.85900
O157        O  0.30069055  0.09586942  0.33123584    -0.66200
O158        O  0.35917625  0.12076034  0.47537563    -0.85500
C159        C  0.28686834  0.11853630  0.34534929     0.86800
C160        C  0.35670554  0.15692542  0.29582741     1.08300
H161        H  0.32549049  0.12813405  0.41739057     0.40100
O162        O  0.34771707  0.13364772  0.41103201    -1.08100
O163        O  0.41159904  0.10728119  0.40726739    -0.64800
Ni164      Ni  0.36586128  0.09332887  0.40127712     1.26300
O165        O  0.30309352  0.14015364  0.36158937    -0.65000
O166        O  0.36088710  0.07506587  0.44572565    -0.77300
C167        C  0.36759627  0.03814668  0.36540107     0.86200
O168        O  0.38243755  0.05262614  0.38795659    -0.64500
Ni169      Ni  0.36749077  0.15836194  0.44472078     1.27400
Ni170      Ni  0.34882426  0.15393304  0.36734821     1.26100
H171        H  0.38889173  0.11862333  0.35079695     0.40700
N172        N  0.08405762  0.31479971  0.27771145    -0.01800
C173        C  0.06837738  0.33046642  0.25343918     0.00800
C174        C  0.05390264  0.35753900  0.26498992    -0.22100
C175        C  0.06076080  0.35857727  0.29727912    -0.22300
C176        C  0.07956846  0.33240126  0.30434100     0.00700
H177        H  0.04231581  0.37648522  0.25074666     0.14400
H178        H  0.05426824  0.37750237  0.31338252     0.14500
O179        O  0.05759775  0.30204435  0.42099163    -0.79300
O180        O  0.17180620  0.39096646  0.34729065    -0.63900
O181        O  0.10790226  0.34794440  0.40576578    -1.10500
C182        C  0.05302786  0.44028253  0.37669413     1.07600
O183        O  0.16118930  0.44442548  0.35353928    -0.77100
O184        O  0.13536135  0.43351417  0.41396012    -0.64700
Ni185      Ni  0.09776078  0.30135810  0.39909976     1.34900
C186        C  0.11811579  0.41856364  0.43649144     0.86400
O187        O  0.17107071  0.33767299  0.39079088    -0.77700
O188        O  0.13776933  0.29666654  0.37786420    -0.88000
C189        C  0.17906209  0.42239557  0.34378894     0.85900
O190        O  0.07923442  0.31337338  0.35887848    -0.66200
O191        O  0.07792176  0.45084075  0.39129961    -0.85500
C192        C  0.09538632  0.32848316  0.33562383     0.86800
C193        C  0.16286280  0.30656811  0.39229541     1.08300
H194        H  0.10150096  0.39771830  0.34283854     0.40100
O195        O  0.10827049  0.39937823  0.36522642    -1.08100
O196        O  0.09013164  0.40399587  0.43139317    -0.64800
Ni197      Ni  0.07568962  0.37813981  0.39414183     1.26300
O198        O  0.12366628  0.34305766  0.33935542    -0.65000
O199        O  0.04483042  0.40908431  0.37867967    -0.77300
C200        C  0.03829289  0.32347702  0.42887211     0.86200
O201        O  0.04313070  0.35495356  0.42216089    -0.64500
Ni202      Ni  0.11926216  0.44565927  0.37258199     1.27400
Ni203      Ni  0.13998265  0.36869643  0.37612539     1.26100
H204        H  0.11466936  0.35017819  0.42779061     0.40700
N205        N  0.30823015  0.25460315  0.41274377    -0.01800
C206        C  0.30838458  0.27880363  0.43489455     0.00800
C207        C  0.32901055  0.27156390  0.46001645    -0.22100
C208        C  0.34489509  0.24478815  0.45157703    -0.22300
C209        C  0.33243492  0.23512446  0.42242967     0.00700
H210        H  0.33511386  0.28680756  0.48030894     0.14400
H211        H  0.36445910  0.23432460  0.46473245     0.14500
N212        N  0.23302657  0.41468519  0.31985858    -0.01800
C213        C  0.26139604  0.42465078  0.33385642     0.00800
C214        C  0.25877757  0.45210820  0.35207729    -0.24900
C215        C  0.22737360  0.45898800  0.35086996    -0.22300
C216        C  0.21172440  0.43453631  0.33293099     0.00700
H217        H  0.27690462  0.46332385  0.36767167     0.14400
H218        H  0.21633487  0.47598401  0.36638728     0.14500
N219        N  0.33812654  0.33070378  0.26092530    -0.01800
C220        C  0.32023388  0.33166686  0.28823614     0.00800
C221        C  0.28972777  0.34099101  0.28096620    -0.22100
C222        C  0.28968127  0.34827383  0.24828455    -0.22300
C223        C  0.31989820  0.34262566  0.23689457     0.00700
H224        H  0.27136402  0.34694191  0.29795993     0.14400
H225        H  0.27066721  0.35912851  0.23487702     0.14500
O226        O  0.40335788  0.40734829  0.32912647    -0.79300
O227        O  0.29386588  0.32489047  0.39983309    -0.63900
O228        O  0.35391462  0.39829446  0.37002384    -1.10500
C229        C  0.42744409  0.33199498  0.42906181     1.07600
O230        O  0.31610420  0.33569691  0.44454829    -0.77100
O231        O  0.37236307  0.36297728  0.46533070    -0.64700
Ni232      Ni  0.35830662  0.40713432  0.32450232     1.34900
C233        C  0.38322470  0.39230501  0.45693473     0.86400
O234        O  0.28860724  0.38691170  0.36682319    -0.77700
O235        O  0.31200082  0.40798725  0.31945638    -0.88000
C236        C  0.30116437  0.31440570  0.42787803     0.85900
O237        O  0.35993528  0.36186180  0.31550332    -0.66200
O238        O  0.40260602  0.31507689  0.44088664    -0.85500
C239        C  0.33513813  0.34235394  0.31813439     0.86800
C240        C  0.28831739  0.40397265  0.33964885     1.08300
H241        H  0.36603415  0.32433710  0.38540715     0.40100
O242        O  0.36136944  0.34221888  0.39915485    -1.08100
O243        O  0.38547160  0.40357368  0.42786758    -0.64800
Ni244      Ni  0.39150759  0.37995664  0.38940894     1.26300
O245        O  0.31950822  0.33867068  0.34438946    -0.65000
O246        O  0.42708979  0.35868143  0.41029075    -0.77300
C247        C  0.41329758  0.42988307  0.34739646     0.86200
O248        O  0.41907349  0.41989657  0.37613196    -0.64500
Ni249      Ni  0.35915910  0.32500224  0.44283381     1.27400
Ni250      Ni  0.32300971  0.36248411  0.38367937     1.26100
H251        H  0.34907617  0.41855125  0.38022663     0.40700
N252        N  0.23424712  0.09683210  0.18197001    -0.01800
C253        C  0.21006059  0.07364314  0.17444368     0.00800
C254        C  0.22269820  0.04716712  0.15976015    -0.22100
C255        C  0.25494897  0.05554642  0.15554254    -0.22300
C256        C  0.26130204  0.08672797  0.16801695     0.00700
H257        H  0.20934164  0.02671146  0.14845428     0.14400
H258        H  0.27083681  0.04292126  0.14019051     0.14500
O259        O  0.30583131  0.11962364  0.05787041    -0.79300
O260        O  0.35735859  0.15541705  0.19987009    -0.63900
O261        O  0.34368318  0.14027018  0.10880330    -1.10500
C262        C  0.38898300  0.04111752  0.13671864     1.07600
O263        O  0.39707089  0.12112723  0.20909723    -0.77100
O264        O  0.41840145  0.13129869  0.14713247    -0.64700
Ni265      Ni  0.30155537  0.14775961  0.09321770     1.34900
C266        C  0.41846471  0.13244012  0.11635813     0.86400
O267        O  0.33951862  0.19553807  0.14628175    -0.77700
O268        O  0.29425377  0.17783313  0.12623268    -0.88000
C269        C  0.37939477  0.14362954  0.21772729     0.85900
O270        O  0.28530345  0.11097877  0.12053232    -0.66200
O271        O  0.40970916  0.06512065  0.13964346    -0.85500
C272        C  0.28544502  0.11063232  0.15130225     0.86800
C273        C  0.31520717  0.20179740  0.12906301     1.08300
H274        H  0.34402921  0.08797254  0.16990363     0.40100
O275        O  0.35989069  0.10213116  0.15741878    -1.08100
O276        O  0.39933556  0.11295696  0.10010902    -0.64800
Ni277      Ni  0.35500526  0.09451278  0.11183054     1.26300
O278        O  0.30471687  0.13060146  0.16686914    -0.65000
O279        O  0.36487344  0.04724633  0.11924567    -0.77300
C280        C  0.32505426  0.09882141  0.04848907     0.86200
O281        O  0.34777906  0.08809271  0.06603505    -0.64500
Ni282      Ni  0.40180155  0.09396992  0.17333727     1.27400
Ni283      Ni  0.34910051  0.14822620  0.15423568     1.26100
H284        H  0.35925302  0.15452999  0.09604775     0.40700
N285        N  0.21713506  0.40595947  0.18278405    -0.01800
C286        C  0.23713232  0.40007960  0.15789173     0.00800
C287        C  0.22891986  0.41694298  0.12978701    -0.22100
C288        C  0.20282176  0.43375697  0.13726322    -0.22300
C289        C  0.19493855  0.42510727  0.16935010     0.00700
H290        H  0.24141638  0.41804143  0.10666375     0.14400
H291        H  0.18993337  0.44875620  0.12016530     0.14500
N292        N  0.29592984  0.25567056  0.10486635    -0.01800
C293        C  0.27739559  0.25308998  0.07797755     0.00800
C294        C  0.29053126  0.23248231  0.05653457    -0.22100
C295        C  0.31570400  0.21894319  0.07227180    -0.22300
C296        C  0.31598799  0.23006485  0.10361977     0.00700
H297        H  0.28008682  0.22413990  0.03417487     0.14400
H298        H  0.32692609  0.19720192  0.06434475     0.14500
O299        O  0.33103431  0.30082221  0.08586563    -0.79300
O300        O  0.39929985  0.43295392  0.14196565    -0.63900
O301        O  0.36293157  0.34300900  0.12991481    -1.10500
C302        C  0.26739793  0.38469224  0.16009532     1.07600
O303        O  0.36301662  0.44921301  0.17648406    -0.77100
O304        O  0.34627377  0.38458396  0.20241482    -0.64700
Ni305      Ni  0.37262826  0.32484520  0.08905966     1.34900
C306        C  0.33186043  0.35539933  0.20490711     0.86400
O307        O  0.42354103  0.37222968  0.13356406    -0.77700
O308        O  0.41620270  0.34416787  0.08831034    -0.88000
C309        C  0.38868646  0.45485568  0.15971123     0.85900
O310        O  0.35959740  0.36284956  0.06380187    -0.66200
O311        O  0.28561989  0.39257284  0.18292215    -0.85500
C312        C  0.37601468  0.39084749  0.06469339     0.86800
C313        C  0.43366881  0.35478885  0.11105694     1.08300
H314        H  0.33195120  0.41283854  0.11952428     0.40100
O315        O  0.33747820  0.39888625  0.13806547    -1.08100
O316        O  0.31952589  0.34134773  0.18049468    -0.64800
Ni317      Ni  0.31947670  0.35330476  0.13441677     1.26300
O318        O  0.38590557  0.40228706  0.09104106    -0.65000
O319        O  0.27663608  0.36719033  0.13742345    -0.77300
C320        C  0.31134728  0.28898510  0.10804519     0.86200
O321        O  0.30356041  0.30699749  0.13088613    -0.64500
Ni322      Ni  0.32584812  0.41844489  0.17776705     1.27400
Ni323      Ni  0.38144193  0.38763982  0.13588179     1.26100
H324        H  0.36895691  0.32798053  0.14743989     0.40700
O325        O  0.06287845  0.30686719  0.10783174    -0.79300
O326        O  0.15129701  0.39150196  0.18961804    -0.63900
O327        O  0.07677698  0.35576938  0.14696109    -1.10500
C328        C  0.12835784  0.41313268  0.05393869     1.07600
O329        O  0.14118279  0.43821155  0.16517415    -0.77100
O330        O  0.10087133  0.45420778  0.11993991    -0.64700
Ni331      Ni  0.06307136  0.30921941  0.15341594     1.34900
C332        C  0.07250643  0.44209468  0.11542494     0.86400
O333        O  0.09866038  0.35459013  0.21007769    -0.77700
O334        O  0.06297318  0.31112011  0.20017935    -0.88000
C335        C  0.16120401  0.42059283  0.17920945     0.85900
O336        O  0.10349102  0.29084643  0.15240017    -0.66200
O337        O  0.14226078  0.43361222  0.07307091    -0.85500
C338        C  0.13196084  0.30292453  0.15637009     0.86800
C339        C  0.07778859  0.33107780  0.21923214     1.08300
H340        H  0.14556978  0.37719716  0.11882638     0.40100
O341        O  0.12778760  0.38933777  0.12584333    -1.08100
O342        O  0.06576258  0.41165081  0.10868901    -0.64800
Ni343      Ni  0.09073041  0.37283383  0.10383824     1.26300
O344        O  0.13893248  0.33331114  0.16320283    -0.65000
O345        O  0.10703607  0.38982041  0.06264222    -0.77300
C346        C  0.04318398  0.32468229  0.09355060     0.86200
O347        O  0.05357826  0.35347904  0.08285807    -0.64500
Ni348      Ni  0.14137953  0.43585774  0.11964803     1.27400
Ni349      Ni  0.11409855  0.37206109  0.16883167     1.26100
H350        H  0.05910365  0.36809162  0.15392000     0.40700
O351        O  0.15835938  0.05987616  0.15317571    -0.79300
O352        O  0.03889845  0.13499664  0.10334451    -0.63900
O353        O  0.12437907  0.11022489  0.12111979    -1.10500
C354        C  0.11654206  0.16232797  0.21719875     1.07600
O355        O  0.04253550  0.18314065  0.12810970    -0.77100
O356        O  0.10729842  0.19934175  0.13721207    -0.64700
Ni357      Ni  0.13325195  0.06438609  0.11419144     1.34900
C358        C  0.13624562  0.19545597  0.14506345     0.86400
O359        O  0.08532533  0.11108186  0.06851342    -0.77700
O360        O  0.10951512  0.06295766  0.07387382    -0.88000
C361        C  0.02747301  0.16224136  0.11027974     0.85900
O362        O  0.09638595  0.04348722  0.13709033    -0.66200
O363        O  0.09950881  0.18266179  0.20172544    -0.85500
C364        C  0.06776266  0.04852048  0.12916833     0.86800
C365        C  0.09174685  0.08278998  0.05857536     1.08300
H366        H  0.06525647  0.11864576  0.16848551     0.40100
O367        O  0.08051555  0.13376586  0.15620357    -1.08100
O368        O  0.14495217  0.16691725  0.15518960    -0.64800
Ni369      Ni  0.12355296  0.12219677  0.16500880     1.26300
O370        O  0.05959225  0.07770116  0.12066188    -0.65000
O371        O  0.12017845  0.13300642  0.20843461    -0.77300
C372        C  0.17645212  0.08165956  0.16713041     0.86200
O373        O  0.16674893  0.11004660  0.17269338    -0.64500
Ni374      Ni  0.07220053  0.17972851  0.16379737     1.27400
Ni375      Ni  0.08165786  0.12213384  0.11194429     1.26100
H376        H  0.13971335  0.12519967  0.10877762     0.40700
C377        C  0.24613409  0.43457954  0.26325364     0.25200
C378        C  0.23172883  0.40970483  0.28528721    -0.22900
C379        C  0.21320783  0.38252016  0.27270232     0.20100
C380        C  0.20954393  0.38018216  0.23890241     0.25200
C381        C  0.22400185  0.40522959  0.21714516    -0.22800
C382        C  0.24193681  0.43255076  0.22983959     0.20100
F383        F  0.25398768  0.45834639  0.20972239    -0.12800
F384        F  0.26283926  0.46206747  0.27426038    -0.15100
F385        F  0.19141283  0.35387530  0.22745259    -0.15100
F386        F  0.19823034  0.35863825  0.29311866    -0.12800
C387        C  0.25296101  0.15460922  0.24935849     0.25200
C388        C  0.25116244  0.13208137  0.27695078    -0.22900
C389        C  0.24375833  0.09775928  0.27208727     0.20100
C390        C  0.23682146  0.08664157  0.24120170     0.25200
C391        C  0.23714894  0.10932766  0.21407014    -0.22800
C392        C  0.24554757  0.14333852  0.21842207     0.20100
F393        F  0.24610400  0.16569689  0.19265708    -0.12800
F394        F  0.26207540  0.18756623  0.25205060    -0.15100
F395        F  0.23030282  0.05331375  0.23766693    -0.15100
F396        F  0.24240788  0.07467336  0.29728722    -0.12800
C397        C  0.39416578  0.26588845  0.28124318     0.25200
C398        C  0.37705595  0.23748245  0.26940932    -0.22900
C399        C  0.34997015  0.24163529  0.24994113     0.20100
C400        C  0.33895109  0.27314384  0.24439496     0.25200
C401        C  0.35517310  0.30141318  0.25749658    -0.22800
C402        C  0.38359150  0.29768411  0.27478092     0.20100
F403        F  0.40031529  0.32468513  0.28658322    -0.12800
F404        F  0.42075495  0.26280964  0.29960277    -0.15100
F405        F  0.31089985  0.27557876  0.22822298    -0.15100
F406        F  0.33397544  0.21533494  0.23603228    -0.12800
C407        C  0.08228851  0.22091342  0.27685724     0.25200
C408        C  0.11512678  0.21579583  0.27481209    -0.22900
C409        C  0.13785790  0.24394078  0.27426704     0.20100
C410        C  0.12775565  0.27646928  0.27558549     0.25200
C411        C  0.09488180  0.28149956  0.27715764    -0.22800
C412        C  0.07222492  0.25351360  0.27794362     0.20100
F413        F  0.04029673  0.25793840  0.27991147    -0.12800
F414        F  0.06008314  0.19428596  0.27772649    -0.15100
F415        F  0.14994401  0.30310740  0.27482340    -0.15100
F416        F  0.16985153  0.23984979  0.27200552    -0.12800
C417        C  0.18777719  0.23372367  0.08716436     0.25200
C418        C  0.17994043  0.26103541  0.10533027    -0.22900
C419        C  0.20114878  0.29054349  0.10204440     0.20100
C420        C  0.23215123  0.28931926  0.08887429     0.25200
C421        C  0.24248155  0.25893950  0.07878182    -0.22800
C422        C  0.21910538  0.23211729  0.07513792     0.20100
F423        F  0.22722935  0.20286456  0.06327701    -0.12800
F424        F  0.16646147  0.20669666  0.08462329    -0.15100
F425        F  0.25250932  0.31744141  0.08744817    -0.15100
F426        F  0.19327790  0.31979585  0.11407426    -0.12800
C427        C  0.22741610  0.25953253  0.37835376     0.25200
C428        C  0.20909747  0.24119520  0.40309071    -0.22900
C429        C  0.22501971  0.21780042  0.42273142     0.20100
C430        C  0.25866739  0.21791249  0.42185237     0.25200
C431        C  0.27719242  0.24135210  0.40155979    -0.22800
C432        C  0.26115088  0.25929651  0.37747421     0.20100
F433        F  0.27836545  0.27908845  0.35501369    -0.12800
F434        F  0.21298698  0.27982446  0.35666191    -0.15100
F435        F  0.27327930  0.19839843  0.44414685    -0.15100
F436        F  0.20877806  0.19733846  0.44542274    -0.12800
C437        C  0.45469868  0.08996171  0.02110916     0.25200
C438        C  0.46205683  0.11218273  0.99400886    -0.22900
C439        C  0.47423528  0.14512867  0.99948810     0.20100
C440        C  0.47912028  0.15557285  0.03087658     0.25200
C441        C  0.47211860  0.13343195  0.05796767    -0.22800
C442        C  0.45979577  0.10050616  0.05272262     0.20100
F443        F  0.45240216  0.07868956  0.07829851    -0.12800
F444        F  0.44208925  0.05821247  0.01711195    -0.15100
F445        F  0.98961529  0.18798092  0.03472058    -0.15100
F446        F  0.98233024  0.16728454  0.47430552    -0.12800
C447        C  0.96265931  0.31410933  0.04032931     0.25200
C448        C  0.48141204  0.34020343  0.05429214    -0.22900
C449        C  0.49885631  0.36412519  0.03340571     0.20100
C450        C  0.49868911  0.36101731  0.49947338     0.25200
C451        C  0.48021646  0.33463027  0.48549239    -0.22800
C452        C  0.96174954  0.31147330  0.50660248     0.20100
F453        F  0.94438470  0.28483098  0.49479501    -0.12800
F454        F  0.94653779  0.28996823  0.05966838    -0.15100
F455        F  0.51696677  0.38350796  0.48025666    -0.15100
F456        F  0.51622145  0.39040099  0.04584079    -0.12800
C457        C  0.48679164  0.98686581  0.39079999     0.25200
C458        C  0.00426496  0.50403123  0.36504258    -0.22900
C459        C  0.48746874  0.52512283  0.34368025     0.20100
C460        C  0.45378277  0.52462374  0.34514066     0.25200
C461        C  0.43593346  0.50346771  0.36805652    -0.22800
C462        C  0.45304925  0.98709031  0.39260824     0.20100
F463        F  0.43660414  0.96877930  0.41668542    -0.12800
F464        F  0.50193573  0.96764142  0.41287361    -0.15100
F465        F  0.43836922  0.54123640  0.32123079    -0.15100
F466        F  0.00299150  0.54322231  0.31886336    -0.12800
C467        C  0.46951286  0.45317655  0.17918845     0.25200
C468        C  0.45883368  0.48293381  0.19042375    -0.22900
C469        C  0.48219154  0.00921512  0.19591131     0.20100
C470        C  0.01370827  0.00829282  0.18453597     0.25200
C471        C  0.02213051  0.48199209  0.16553807    -0.22800
C472        C  0.00086794  0.45249538  0.16693532     0.20100
F473        F  0.00908080  0.42389663  0.15383023    -0.12800
F474        F  0.44926570  0.42509584  0.17880213    -0.15100
F475        F  0.03479751  0.03521198  0.18859323    -0.15100
F476        F  0.47391110  0.03766730  0.20927374    -0.12800
C477        C  0.37286664  0.47426880  0.52159747     0.25200
C478        C  0.35914422  0.44545401  0.00722028    -0.22900
C479        C  0.33328952  0.44824025  0.98604835     0.20100
C480        C  0.32123837  0.47930412  0.97923466     0.25200
C481        C  0.33566432  0.00831357  0.99346987    -0.22800
C482        C  0.36068448  0.50503734  0.51519736     0.20100
F483        F  0.37432627  0.03165656  0.53095005    -0.12800
F484        F  0.39924142  0.47312074  0.54061784    -0.15100
F485        F  0.29607424  0.48132963  0.95875627    -0.15100
F486        F  0.32057480  0.42093517  0.97116117    -0.12800
C487        C  0.07560250  0.00418401  0.49075348     0.25200
C488        C  0.09804856  0.03065671  0.99930974    -0.22900
C489        C  0.12955137  0.02309165  0.00692687     0.20100
C490        C  0.13835640  0.49045003  0.00647626     0.25200
C491        C  0.11635708  0.46443314  0.99677808    -0.22800
C492        C  0.08490512  0.47168138  0.48910991     0.20100
F493        F  0.06282355  0.44671409  0.48153907    -0.12800
F494        F  0.04451795  0.01000185  0.48450480    -0.15100
F495        F  0.16886602  0.48381832  0.01446217    -0.15100
F496        F  0.15143955  0.04758138  0.01600609    -0.12800
N497        N  0.12623421  0.43078319  0.99543261    -0.01800
C498        C  0.13929986  0.41340796  0.52026993     0.00800
C499        C  0.15433668  0.38660396  0.50903963    -0.22100
C500        C  0.15041190  0.38738835  0.97616480    -0.22300
C501        C  0.13252060  0.41420811  0.96850697     0.00700
H502        H  0.16467958  0.36696915  0.52351364     0.14400
H503        H  0.15812804  0.36916043  0.95992276     0.14500
N504        N  0.33724168  0.06916483  0.49811335    -0.01800
C505        C  0.32065904  0.04022163  0.49039609     0.00800
C506        C  0.28839109  0.04050747  0.49839431    -0.22100
C507        C  0.28571480  0.06833066  0.51555015    -0.22300
C508        C  0.31644263  0.08372053  0.51753248     0.00700
H509        H  0.27037296  0.01956142  0.49836033     0.14400
H510        H  0.26517901  0.07255419  0.53063772     0.14500
N511        N  0.40630821  0.48707355  0.66267331    -0.01800
C512        C  0.42388352  0.48880738  0.69030221     0.00800
C513        C  0.41064848  0.00976625  0.71102193    -0.22100
C514        C  0.38716071  0.02496952  0.69412016    -0.22300
C515        C  0.38761787  0.01376463  0.66286742     0.00700
H516        H  0.42032479  0.01744451  0.73393034     0.14400
H517        H  0.37647977  0.04716490  0.70164501     0.14500
N518        N  0.03684676  0.99500778  0.85702204    -0.01800
C519        C  0.05714424  0.01400450  0.83628344     0.00800
C520        C  0.06905837  0.99442443  0.81318248    -0.22100
C521        C  0.05788022  0.46196018  0.82192334    -0.22300
C522        C  0.04097136  0.46263436  0.85089785     0.00700
H523        H  0.08775933  0.00192799  0.79538946     0.14400
H524        H  0.06803812  0.44026494  0.81252687     0.14500
N525        N  0.48662986  0.33854584  0.58909341    -0.01800
C526        C  0.46531462  0.34239383  0.61356280     0.00800
C527        C  0.47374655  0.32581953  0.64175662    -0.22100
C528        C  0.50115979  0.31105254  0.63493879    -0.22300
C529        C  0.00941864  0.32052562  0.60322244     0.00700
H530        H  0.46043795  0.32333214  0.66445348     0.14400
H531        H  0.01436052  0.29680884  0.65239629     0.14500
N532        N  0.46104619  0.12174801  0.93348213    -0.01800
C533        C  0.48192550  0.10843674  0.91215102     0.00800
C534        C  0.98321152  0.07462341  0.92093001    -0.22100
C535        C  0.47185806  0.07009959  0.95220374    -0.22300
C536        C  0.46133094  0.10051337  0.96019724     0.00700
H537        H  0.99948712  0.05804770  0.91064813     0.14400
H538        H  0.97673624  0.04928219  0.96858972     0.14500
N539        N  0.37580198  0.41558490  0.50833989    -0.01800
C540        C  0.39569646  0.41202024  0.98311270     0.00800
C541        C  0.42577597  0.40492225  0.99436032    -0.22100
C542        C  0.42303900  0.40071734  0.52737013    -0.22300
C543        C  0.39163239  0.40596257  0.53501622     0.00700
H544        H  0.44536930  0.39700081  0.97998166     0.14400
H545        H  0.44056462  0.39073424  0.54346968     0.14500
N546        N  0.08806892  0.06429693  0.50200017    -0.01800
C547        C  0.07403945  0.07184142  0.53011387     0.00800
C548        C  0.04400668  0.08333084  0.52507430    -0.22100
C549        C  0.04061424  0.08650683  0.99268233    -0.22300
C550        C  0.06840591  0.07671527  0.97913482     0.00700
H551        H  0.02913053  0.09423588  0.54269314     0.14400
H552        H  0.02363818  0.10168668  0.98071984     0.14500
N553        N  0.40402216  0.49013991  0.85955253    -0.01800
C554        C  0.40167608  0.46367667  0.84004214     0.00800
C555        C  0.37886053  0.46818346  0.81632702    -0.22100
C556        C  0.36412640  0.99618984  0.82337561    -0.22300
C557        C  0.37952489  0.00897916  0.84994971     0.00700
H558        H  0.37195473  0.45175762  0.79718353     0.14400
H559        H  0.34395423  0.00590443  0.81060969     0.14500
N560        N  0.04604282  0.48863392  0.63934797    -0.01800
C561        C  0.04515898  0.01890983  0.62288242     0.00800
C562        C  0.03701517  0.01404780  0.59105844    -0.22100
C563        C  0.03890770  0.48049978  0.58631842    -0.22300
C564        C  0.04723442  0.46603236  0.61569326     0.00700
H565        H  0.03652459  0.03319796  0.57194879     0.14400
H566        H  0.04093491  0.46982066  0.56291185     0.14500
N567        N  0.48324083  0.32854718  0.95106777    -0.01800
C568        C  0.45742470  0.31647835  0.93405303     0.00800
C569        C  0.46264395  0.28729431  0.91958418    -0.22100
C570        C  0.49390081  0.28203906  0.92517387    -0.22300
C571        C  0.00680567  0.30926620  0.94149723     0.00700
H572        H  0.44626168  0.27308539  0.90430313     0.14400
H573        H  0.00701578  0.26395936  0.91278775     0.14500
N574        N  0.47153035  0.14634962  0.58990327    -0.01800
C575        C  0.49448207  0.16977741  0.59972538     0.00800
C576        C  0.47997975  0.19648638  0.61198954    -0.22100
C577        C  0.44752084  0.18800764  0.61242236    -0.22300
C578        C  0.44296691  0.15641316  0.60038488     0.00700
H579        H  0.99173790  0.21735148  0.62404077     0.14400
H580        H  0.42987117  0.20078036  0.62550151     0.14500
N581        N  0.17759833  0.25140180  0.91238431    -0.01800
C582        C  0.17423603  0.28410070  0.91827090     0.00800
C583        C  0.15765762  0.28567959  0.94731845    -0.22100
C584        C  0.14610616  0.25366230  0.95656713    -0.22300
C585        C  0.15743613  0.23327445  0.93388548     0.00700
H586        H  0.14822385  0.30783354  0.95651501     0.14400
H587        H  0.12764906  0.24687388  0.97479081     0.14500
N588        N  0.15702421  0.25547717  0.63250441    -0.01800
C589        C  0.15844800  0.22579670  0.64988551     0.00800
C590        C  0.16803199  0.23186856  0.68108614    -0.22100
C591        C  0.16673445  0.26548419  0.68480640    -0.22300
C592        C  0.15709791  0.27894053  0.65549206     0.00700
H593        H  0.16954466  0.21349802  0.70071264     0.14400
H594        H  0.16599820  0.27708690  0.70786247     0.14500
N595        N  0.12555609  0.18244072  0.77221424    -0.01800
C596        C  0.13698961  0.17376539  0.74343171     0.00800
C597        C  0.16706539  0.16190570  0.74629528    -0.22100
C598        C  0.17337788  0.16042517  0.77830805    -0.22300
C599        C  0.14685413  0.17095813  0.79382235     0.00700
H600        H  0.17988900  0.14966644  0.72798733     0.14400
H601        H  0.19072083  0.14490294  0.78917801     0.14500
O602        O  0.10171089  0.05466055  0.83142755    -0.79300
O603        O  0.15185346  0.18423000  0.90475414    -0.63900
O604        O  0.12261987  0.09684636  0.88057286    -1.10500
C605        C  0.01627413  0.12382815  0.90502530     1.07600
O606        O  0.11281323  0.19273220  0.93997552    -0.77100
O607        O  0.08988384  0.12736018  0.95502311    -0.64700
Ni608      Ni  0.14086309  0.08167354  0.84156531     1.34900
C609        C  0.07996168  0.09708669  0.95083674     0.86400
O610        O  0.18352493  0.13159652  0.89184936    -0.77700
O611        O  0.18404062  0.10452765  0.84626025    -0.88000
C612        C  0.14000833  0.20113991  0.92618906     0.85900
O613        O  0.12679555  0.11933986  0.81710987    -0.66200
O614        O  0.03117249  0.14054477  0.92667043    -0.85500
C615        C  0.13637976  0.14961446  0.82183330     0.86800
C616        C  0.19883057  0.12192483  0.86742420     1.08300
H617        H  0.08851502  0.16526317  0.87422794     0.40100
O618        O  0.09253768  0.14934575  0.89175781    -1.08100
O619        O  0.07230072  0.08646934  0.92339154    -0.64800
Ni620      Ni  0.07714657  0.10547773  0.87994558     1.26300
O621        O  0.14323628  0.16007981  0.84944394    -0.65000
O622        O  0.03169799  0.11469668  0.88046249    -0.77300
C623        C  0.07465422  0.04573736  0.84528274     0.86200
O624        O  0.06320572  0.06178154  0.86765497    -0.64500
Ni625      Ni  0.07418437  0.16441550  0.93077630     1.27400
Ni626      Ni  0.13803970  0.14066307  0.89253210     1.26100
H627        H  0.12666310  0.08090388  0.89807998     0.40700
N628        N  0.37117014  0.17586639  0.76770591    -0.01800
C629        C  0.38981555  0.20428928  0.77328420     0.00800
C630        C  0.42152492  0.20130010  0.76443388    -0.22100
C631        C  0.42161538  0.17256925  0.74831848    -0.22300
C632        C  0.38998830  0.15947905  0.74772594     0.00700
H633        H  0.44085902  0.22096415  0.76295657     0.14400
H634        H  0.44110497  0.16625683  0.73280630     0.14500
N635        N  0.25306672  0.12365157  0.83784109    -0.01800
C636        C  0.23290302  0.13726224  0.85955815     0.00800
C637        C  0.23158009  0.17094016  0.85040543    -0.22100
C638        C  0.24206270  0.17497767  0.81885245    -0.22300
C639        C  0.25210094  0.14431672  0.81077074     0.00700
H640        H  0.21558093  0.18768600  0.86078509     0.14400
H641        H  0.23678744  0.19577320  0.80263985     0.14500
O642        O  0.34183482  0.04994704  0.85497142    -0.79300
O643        O  0.33266816  0.19487941  0.88096508    -0.63900
O644        O  0.36676098  0.11340633  0.85759875    -1.10500
C645        C  0.35447605  0.08917826  0.97220818     1.07600
O646        O  0.37245873  0.19656103  0.91515525    -0.77100
O647        O  0.41293005  0.14926279  0.94048551    -0.64700
Ni648      Ni  0.34577746  0.08786760  0.82509643     1.34900
C649        C  0.42735140  0.12754289  0.92538052     0.86400
O650        O  0.35312028  0.17178630  0.82251493    -0.77700
O651        O  0.35167739  0.12513125  0.79381023    -0.88000
C652        C  0.34662463  0.20835745  0.90467880     0.85900
O653        O  0.30069685  0.09588537  0.83122594    -0.66200
O654        O  0.35919036  0.12081836  0.97537231    -0.85500
C655        C  0.28687411  0.11855161  0.84533865     0.86800
C656        C  0.35670880  0.15691572  0.79581168     1.08300
H657        H  0.32551499  0.12816294  0.91738961     0.40100
O658        O  0.34774020  0.13367815  0.91102650    -1.08100
O659        O  0.41162762  0.10731838  0.90727112    -0.64800
Ni660      Ni  0.36588726  0.09335961  0.90128515     1.26300
O661        O  0.30309912  0.14016266  0.86158784    -0.65000
O662        O  0.36092572  0.07511300  0.94574013    -0.77300
C663        C  0.36759303  0.03817344  0.86542901     0.86200
O664        O  0.38245452  0.05265160  0.88797310    -0.64500
Ni665      Ni  0.36751347  0.15840653  0.94470358     1.27400
Ni666      Ni  0.34883514  0.15394581  0.86733432     1.26100
H667        H  0.38890329  0.11863742  0.85079029     0.40700
N668        N  0.08405163  0.31480061  0.77771495    -0.01800
C669        C  0.06834759  0.33044871  0.75344833     0.00800
C670        C  0.05384088  0.35749792  0.76500665    -0.22100
C671        C  0.06070155  0.35853846  0.79729630    -0.22300
C672        C  0.07954117  0.33238613  0.80434975     0.00700
H673        H  0.04222835  0.37642902  0.75076870     0.14400
H674        H  0.05419149  0.37745268  0.81340454     0.14500
O675        O  0.05759928  0.30205497  0.92100524    -0.79300
O676        O  0.17179502  0.39095645  0.84726142    -0.63900
O677        O  0.10790259  0.34795092  0.90575897    -1.10500
C678        C  0.05303665  0.44029645  0.87669112     1.07600
O679        O  0.16118518  0.44441708  0.85351008    -0.77100
O680        O  0.13537556  0.43350663  0.91393983    -0.64700
Ni681      Ni  0.09775978  0.30136236  0.89910907     1.34900
C682        C  0.11813035  0.41856244  0.93647523     0.86400
O683        O  0.17106951  0.33767735  0.89077367    -0.77700
O684        O  0.13776631  0.29666181  0.87787028    -0.88000
C685        C  0.17905267  0.42238474  0.84375613     0.85900
O686        O  0.07922450  0.31336900  0.85888982    -0.66200
O687        O  0.07793390  0.45084590  0.89129531    -0.85500
C688        C  0.09536886  0.32847585  0.83562875     0.86800
C689        C  0.16286578  0.30657191  0.89228855     1.08300
H690        H  0.10149173  0.39771638  0.84282555     0.40100
O691        O  0.10826606  0.39937778  0.86521087    -1.08100
O692        O  0.09014146  0.40400301  0.93138167    -0.64800
Ni693      Ni  0.07568920  0.37814698  0.89413394     1.26300
O694        O  0.12365185  0.34304703  0.83934917    -0.65000
O695        O  0.04483322  0.40909869  0.87867277    -0.77300
C696        C  0.03829263  0.32348971  0.92887636     0.86200
O697        O  0.04313038  0.35496530  0.92215764    -0.64500
Ni698      Ni  0.11926651  0.44565734  0.87256608     1.27400
Ni699      Ni  0.13997792  0.36869557  0.87610839     1.26100
H700        H  0.11467501  0.35018930  0.92778099     0.40700
N701        N  0.30826556  0.25462850  0.91269782    -0.01800
C702        C  0.30841338  0.27882533  0.93485102     0.00800
C703        C  0.32904654  0.27159207  0.95996902    -0.22100
C704        C  0.34494440  0.24482873  0.95152239    -0.22300
C705        C  0.33248012  0.23516079  0.92237876     0.00700
H706        H  0.33514381  0.28683325  0.98026474     0.14400
H707        H  0.36451348  0.23437106  0.96467461     0.14500
N708        N  0.23301327  0.41466784  0.81982212    -0.01800
C709        C  0.26138565  0.42465459  0.83380649     0.00800
C710        C  0.25876574  0.45212863  0.85200414    -0.24900
C711        C  0.22735924  0.45899682  0.85080130    -0.22300
C712        C  0.21171116  0.43452336  0.83288767     0.00700
H713        H  0.27689510  0.46336412  0.86758385     0.14400
H714        H  0.21632085  0.47600400  0.86630679     0.14500
N715        N  0.33816312  0.33071833  0.76090592    -0.01800
C716        C  0.32026522  0.33168969  0.78821325     0.00800
C717        C  0.28976234  0.34101828  0.78093786    -0.22100
C718        C  0.28972073  0.34829770  0.74825733    -0.22300
C719        C  0.31993590  0.34264115  0.73687076     0.00700
H720        H  0.27139887  0.34697747  0.79792805     0.14400
H721        H  0.27071183  0.35915892  0.73484754     0.14500
O722        O  0.40336415  0.40738257  0.82910588    -0.79300
O723        O  0.29387504  0.32491132  0.89979822    -0.63900
O724        O  0.35392180  0.39832721  0.87000809    -1.10500
C725        C  0.42745194  0.33201155  0.92903747     1.07600
O726        O  0.31610854  0.33571461  0.94451497    -0.77100
O727        O  0.37235808  0.36298175  0.96531118    -0.64700
Ni728      Ni  0.35831392  0.40717411  0.82448516     1.34900
C729        C  0.38323471  0.39230651  0.95692802     0.86400
O730        O  0.28860815  0.38693376  0.86679180    -0.77700
O731        O  0.31200859  0.40802261  0.81943373    -0.88000
C732        C  0.30117551  0.31442302  0.92784134     0.85900
O733        O  0.35994931  0.36190672  0.81547816    -0.66200
O734        O  0.40261135  0.31509569  0.94085965    -0.85500
C735        C  0.33516006  0.34238859  0.81811026     0.86800
C736        C  0.28831705  0.40399136  0.83961502     1.08300
H737        H  0.36604328  0.32436794  0.88537808     0.40100
O738        O  0.36137745  0.34224715  0.89912875    -1.08100
O739        O  0.38549596  0.40358682  0.92786328    -0.64800
Ni740      Ni  0.39151720  0.37998318  0.88938874     1.26300
O741        O  0.31952656  0.33870252  0.84436272    -0.65000
O742        O  0.42710067  0.35869649  0.91026199    -0.77300
C743        C  0.41330858  0.42991359  0.84737590     0.86200
O744        O  0.41908280  0.41992426  0.87611159    -0.64500
Ni745      Ni  0.35916284  0.32501854  0.94280175     1.27400
Ni746      Ni  0.32301615  0.36251176  0.88365362     1.26100
H747        H  0.34908381  0.41858125  0.88021599     0.40700
N748        N  0.23424555  0.09683915  0.68194581    -0.01800
C749        C  0.21005781  0.07365430  0.67441150     0.00800
C750        C  0.22269284  0.04718213  0.65972097    -0.22100
C751        C  0.25494592  0.05555497  0.65551513    -0.22300
C752        C  0.26130350  0.08673277  0.66799735     0.00700
H753        H  0.20933509  0.02672998  0.64841099     0.14400
H754        H  0.27083476  0.04292909  0.64016476     0.14500
O755        O  0.30584777  0.11959659  0.55785438    -0.79300
O756        O  0.35737624  0.15542166  0.69984573    -0.63900
O757        O  0.34370175  0.14025560  0.60878061    -1.10500
C758        C  0.38901882  0.04111861  0.63672643     1.07600
O759        O  0.39711028  0.12115693  0.70906275    -0.77100
O760        O  0.41842933  0.13131296  0.64708872    -0.64700
Ni761      Ni  0.30157481  0.14774504  0.59319176     1.34900
C762        C  0.41848517  0.13243798  0.61631448     0.86400
O763        O  0.33953451  0.19553581  0.64624726    -0.77700
O764        O  0.29427125  0.17782634  0.62619898    -0.88000
C765        C  0.37941867  0.14364220  0.71770071     0.85900
O766        O  0.28531427  0.11097464  0.62051321    -0.66200
O767        O  0.40974428  0.06512636  0.63963141    -0.85500
C768        C  0.28545488  0.11063225  0.65128300     0.86800
C769        C  0.31522210  0.20179245  0.62902861     1.08300
H770        H  0.34406566  0.08797665  0.66989610     0.40100
O771        O  0.35992167  0.10213420  0.65740323    -1.08100
O772        O  0.39935429  0.11294172  0.60008016    -0.64800
Ni773      Ni  0.35502744  0.09449753  0.61182055     1.26300
O774        O  0.30473530  0.13059566  0.66684811    -0.65000
O775        O  0.36490383  0.04723421  0.61925512    -0.77300
C776        C  0.32506034  0.09877996  0.54848263     0.86200
O777        O  0.34778643  0.08805429  0.56602967    -0.64500
Ni778      Ni  0.40184093  0.09399055  0.67331217     1.27400
Ni779      Ni  0.34911994  0.14822460  0.65421098     1.26100
H780        H  0.35927100  0.15451310  0.59602218     0.40700
N781        N  0.21712313  0.40591328  0.68274832    -0.01800
C782        C  0.23713539  0.40006205  0.65785753     0.00800
C783        C  0.22891729  0.41693035  0.62975661    -0.22100
C784        C  0.20280259  0.43371910  0.63723254    -0.22300
C785        C  0.19492128  0.42505526  0.66931654     0.00700
H786        H  0.24142347  0.41805324  0.60663750     0.14400
H787        H  0.18991573  0.44872576  0.62014026     0.14500
N788        N  0.29594411  0.25567738  0.60485226    -0.01800
C789        C  0.27739417  0.25310614  0.57797231     0.00800
C790        C  0.29051680  0.23250188  0.55651694    -0.22100
C791        C  0.31569188  0.21895066  0.57223922    -0.22300
C792        C  0.31599332  0.23006470  0.60358992     0.00700
H793        H  0.28006165  0.22416833  0.53415887     0.14400
H794        H  0.32690443  0.19720790  0.56430151     0.14500
O795        O  0.33109738  0.30079371  0.58586230    -0.79300
O796        O  0.39933182  0.43296040  0.64194834    -0.63900
O797        O  0.36296353  0.34301703  0.62990244    -1.10500
C798        C  0.26741725  0.38470035  0.66005880     1.07600
O799        O  0.36303285  0.44922507  0.67644590    -0.77100
O800        O  0.34629590  0.38460665  0.70238827    -0.64700
Ni801      Ni  0.37267710  0.32485189  0.58905327     1.34900
C802        C  0.33189156  0.35541803  0.70488102     0.86400
O803        O  0.42357275  0.37223307  0.63357200    -0.77700
O804        O  0.41623992  0.34420511  0.58830233    -0.88000
C805        C  0.38870888  0.45486468  0.65968374     0.85900
O806        O  0.35963132  0.36284792  0.56379061    -0.66200
O807        O  0.28563604  0.39259134  0.68288584    -0.85500
C808        C  0.37604218  0.39085115  0.56468214     0.86800
C809        C  0.43370169  0.35479792  0.61106230     1.08300
H810        H  0.33198912  0.41284766  0.61949178     0.40100
O811        O  0.33750988  0.39889690  0.63803649    -1.08100
O812        O  0.31955273  0.34136698  0.68046938    -0.64800
Ni813      Ni  0.31950834  0.35331814  0.63438879     1.26300
O814        O  0.38594191  0.40228743  0.59102818    -0.65000
O815        O  0.27666723  0.36720738  0.63738503    -0.77300
C816        C  0.31137985  0.28898543  0.60802784     0.86200
O817        O  0.30358696  0.30701311  0.63085542    -0.64500
Ni818      Ni  0.32586776  0.41845954  0.67773054     1.27400
Ni819      Ni  0.38147349  0.38764714  0.63586958     1.26100
H820        H  0.36898296  0.32798989  0.64743090     0.40700
O821        O  0.06290021  0.30685239  0.60783707    -0.79300
O822        O  0.15127691  0.39149093  0.68963591    -0.63900
O823        O  0.07676235  0.35576635  0.64696245    -1.10500
C824        C  0.12836037  0.41312269  0.55394842     1.07600
O825        O  0.14117316  0.43819880  0.66518223    -0.77100
O826        O  0.10085775  0.45419630  0.61994489    -0.64700
Ni827      Ni  0.06305400  0.30921683  0.65341993     1.34900
C828        C  0.07249836  0.44208765  0.61539516     0.86400
O829        O  0.09864079  0.35457025  0.71008793    -0.77700
O830        O  0.06292320  0.31112939  0.70018086    -0.88000
C831        C  0.16119410  0.42057188  0.67920784     0.85900
O832        O  0.10346928  0.29083430  0.65244163    -0.66200
O833        O  0.14224687  0.43361273  0.57308065    -0.85500
C834        C  0.13194144  0.30291593  0.65638847     0.86800
C835        C  0.07775365  0.33107033  0.71923849     1.08300
H836        H  0.14556192  0.37719723  0.61884182     0.40100
O837        O  0.12777586  0.38933464  0.62585466    -1.08100
O838        O  0.06575841  0.41164344  0.60865562    -0.64800
Ni839      Ni  0.09073053  0.37282129  0.60383995     1.26300
O840        O  0.13891710  0.33330721  0.66320203    -0.65000
O841        O  0.10705243  0.38979621  0.56264914    -0.77300
C842        C  0.04320470  0.32465338  0.59354131     0.86200
O843        O  0.05359198  0.35345239  0.58284907    -0.64500
Ni844      Ni  0.14136697  0.43585313  0.61965738     1.27400
Ni845      Ni  0.11408087  0.37205297  0.66884200     1.26100
H846        H  0.05908878  0.36809290  0.65391308     0.40700
O847        O  0.15833693  0.05987142  0.65319391    -0.79300
O848        O  0.03890975  0.13500377  0.60329867    -0.63900
O849        O  0.12437433  0.11021431  0.62111917    -1.10500
C850        C  0.11652924  0.16231913  0.71719446     1.07600
O851        O  0.04249434  0.18311348  0.62812780    -0.77100
O852        O  0.10726721  0.19933825  0.63721364    -0.64700
Ni853      Ni  0.13324091  0.06437286  0.61420038     1.34900
C854        C  0.13621791  0.19545271  0.64505680     0.86400
O855        O  0.08535609  0.11108423  0.56849210    -0.77700
O856        O  0.10951051  0.06294110  0.57387670    -0.88000
C857        C  0.02746538  0.16223385  0.61025233     0.85900
O858        O  0.09636582  0.04348889  0.63709460    -0.66200
O859        O  0.09949364  0.18265078  0.70172256    -0.85500
C860        C  0.06774931  0.04851598  0.62914315     0.86800
C861        C  0.09176096  0.08278227  0.55856354     1.08300
H862        H  0.06523967  0.11862371  0.66846545     0.40100
O863        O  0.08049936  0.13375083  0.65619183    -1.08100
O864        O  0.14492722  0.16691398  0.65518228    -0.64800
Ni865      Ni  0.12353822  0.12218865  0.66500612     1.26300
O866        O  0.05958449  0.07769564  0.62062238    -0.65000
O867        O  0.12015875  0.13299599  0.70843298    -0.77300
C868        C  0.17644072  0.08166154  0.66712776     0.86200
O869        O  0.16673714  0.11004794  0.67269282    -0.64500
Ni870      Ni  0.07217578  0.17970904  0.66380186     1.27400
Ni871      Ni  0.08166120  0.12212963  0.61192536     1.26100
H872        H  0.13971552  0.12518464  0.60878106     0.40700
C873        C  0.24605277  0.43459542  0.76321513     0.25200
C874        C  0.23170768  0.40968804  0.78525058    -0.22900
C875        C  0.21322675  0.38247296  0.77266895     0.20100
C876        C  0.20956313  0.38012822  0.73886838     0.25200
C877        C  0.22398668  0.40519504  0.71710930    -0.22800
C878        C  0.24185988  0.43255576  0.72980264     0.20100
F879        F  0.25384258  0.45838205  0.70968533    -0.12800
F880        F  0.26268664  0.46212619  0.77422037    -0.15100
F881        F  0.19145638  0.35380314  0.72742013    -0.15100
F882        F  0.19828085  0.35857333  0.79308874    -0.12800
C883        C  0.25299927  0.15460558  0.74933377     0.25200
C884        C  0.25115846  0.13208256  0.77692898    -0.22900
C885        C  0.24369924  0.09776850  0.77207066     0.20100
C886        C  0.23675161  0.08665602  0.74118451     0.25200
C887        C  0.23713690  0.10933848  0.71404573    -0.22800
C888        C  0.24558663  0.14334027  0.71839533     0.20100
F889        F  0.24620192  0.16569479  0.69262425    -0.12800
F890        F  0.26216130  0.18755199  0.75202589    -0.15100
F891        F  0.23017035  0.05333550  0.73765651    -0.15100
F892        F  0.24230889  0.07468779  0.79727606    -0.12800
C893        C  0.39416083  0.26586441  0.78128109     0.25200
C894        C  0.37707170  0.23747654  0.76939231    -0.22900
C895        C  0.35002625  0.24165499  0.74987435     0.20100
C896        C  0.33901738  0.27317041  0.74433519     0.25200
C897        C  0.35521391  0.30142446  0.75749073    -0.22800
C898        C  0.38359847  0.29766801  0.77483062     0.20100
F899        F  0.40030185  0.32464665  0.78669668    -0.12800
F900        F  0.42071863  0.26275853  0.79968183    -0.15100
F901        F  0.31099593  0.27562273  0.72811529    -0.15100
F902        F  0.33406244  0.21537224  0.73590921    -0.12800
C903        C  0.08229372  0.22091462  0.77691095     0.25200
C904        C  0.11512858  0.21580414  0.77479341    -0.22900
C905        C  0.13785687  0.24395377  0.77419055     0.20100
C906        C  0.12775358  0.27648099  0.77552252     0.25200
C907        C  0.09488118  0.28150339  0.77716214    -0.22800
C908        C  0.07222883  0.25351249  0.77801044     0.20100
F909        F  0.04030371  0.25793100  0.78004997    -0.12800
F910        F  0.06009263  0.19428227  0.77783607    -0.15100
F911        F  0.14993776  0.30312424  0.77471431    -0.15100
F912        F  0.16984696  0.23986758  0.77186259    -0.12800
C913        C  0.18776687  0.23374311  0.58715962     0.25200
C914        C  0.17993068  0.26104547  0.60533812    -0.22900
C915        C  0.20114530  0.29055075  0.60207134     0.20100
C916        C  0.23215061  0.28932815  0.58890694     0.25200
C917        C  0.24247788  0.25895466  0.57879520    -0.22800
C918        C  0.21909565  0.23214072  0.57513047     0.20100
F919        F  0.22721123  0.20289961  0.56323825    -0.12800
F920        F  0.16644701  0.20672159  0.58460397    -0.15100
F921        F  0.25251150  0.31744779  0.58749695    -0.15100
F922        F  0.19327562  0.31979899  0.61411105    -0.12800
C923        C  0.22744543  0.25955995  0.87833580     0.25200
C924        C  0.20913521  0.24121759  0.90307620    -0.22900
C925        C  0.22506590  0.21781928  0.92270573     0.20100
C926        C  0.25871359  0.21792342  0.92180409     0.25200
C927        C  0.27723103  0.24136984  0.90151234    -0.22800
C928        C  0.26117974  0.25932103  0.87743938     0.20100
F929        F  0.27838580  0.27911878  0.85497676    -0.12800
F930        F  0.21300974  0.27986060  0.85665737    -0.15100
F931        F  0.27333650  0.19839498  0.94407807    -0.15100
F932        F  0.20883492  0.19736048  0.94540668    -0.12800
C933        C  0.45473065  0.08993629  0.52106134     0.25200
C934        C  0.46206117  0.11216137  0.49395900    -0.22900
C935        C  0.47420707  0.14511965  0.49943112     0.20100
C936        C  0.47909458  0.15556981  0.53081599     0.25200
C937        C  0.47212550  0.13342341  0.55790988    -0.22800
C938        C  0.45982361  0.10048949  0.55267158     0.20100
F939        F  0.45244082  0.07867537  0.57825163    -0.12800
F940        F  0.44215069  0.05817535  0.51706975    -0.15100
F941        F  0.98956526  0.18798311  0.53466087    -0.15100
F942        F  0.98237854  0.16729004  0.97436033    -0.12800
C943        C  0.96264271  0.31412429  0.54032447     0.25200
C944        C  0.48142045  0.34020208  0.55429552    -0.22900
C945        C  0.49888007  0.36410996  0.53340830     0.20100
C946        C  0.49867199  0.36103243  0.99946985     0.25200
C947        C  0.48022014  0.33463201  0.98548670    -0.22800
C948        C  0.96177599  0.31145451  0.00660691     0.20100
F949        F  0.94444899  0.28478863  0.99479761    -0.12800
F950        F  0.94649502  0.29000099  0.55966297    -0.15100
F951        F  0.51693408  0.38353744  0.98025340    -0.15100
F952        F  0.51626714  0.39037215  0.54584157    -0.12800
C953        C  0.48676907  0.98687479  0.89080422     0.25200
C954        C  0.00428629  0.50405939  0.86506148    -0.22900
C955        C  0.48749158  0.52514783  0.84367133     0.20100
C956        C  0.45380594  0.52465673  0.84513478     0.25200
C957        C  0.43595396  0.50349262  0.86804280    -0.22800
C958        C  0.45302748  0.98710643  0.89260490     0.20100
F959        F  0.43657245  0.96879014  0.91667209    -0.12800
F960        F  0.50190083  0.96763020  0.91287016    -0.15100
F961        F  0.43839476  0.54128402  0.82123289    -0.15100
F962        F  0.00302103  0.54327370  0.81889902    -0.12800
C963        C  0.46953380  0.45316379  0.67917564     0.25200
C964        C  0.45884838  0.48291862  0.69041210    -0.22900
C965        C  0.48223424  0.00919221  0.69591344     0.20100
C966        C  0.01373266  0.00828084  0.68451983     0.25200
C967        C  0.02215365  0.48198819  0.66549846    -0.22800
C968        C  0.00090690  0.45248080  0.66691339     0.20100
F969        F  0.00913562  0.42387969  0.65382407    -0.12800
F970        F  0.44929257  0.42507903  0.67878441    -0.15100
F971        F  0.03482074  0.03520347  0.68856505    -0.15100
F972        F  0.47396762  0.03763529  0.70930302    -0.12800
C973        C  0.37292528  0.47426919  0.02153806     0.25200
C974        C  0.35912662  0.44546484  0.50722774    -0.22900
C975        C  0.33329353  0.44826220  0.48602832     0.20100
C976        C  0.32122772  0.47932310  0.47923577     0.25200
C977        C  0.33565546  0.00826026  0.49345475    -0.22800
C978        C  0.36074785  0.50503789  0.01513219     0.20100
F979        F  0.37431926  0.03168819  0.03099136    -0.12800
F980        F  0.39933333  0.47312737  0.04051250    -0.15100
F981        F  0.29607279  0.48135444  0.45874655    -0.15100
F982        F  0.32061449  0.42097286  0.47109310    -0.12800
C983        C  0.07555547  0.00418374  0.99094210     0.25200
C984        C  0.09804362  0.03063164  0.49929803    -0.22900
C985        C  0.12948938  0.02302954  0.50711869     0.20100
C986        C  0.13834270  0.49044990  0.50648200     0.25200
C987        C  0.11633961  0.46442761  0.49680194    -0.22800
C988        C  0.08493162  0.47169462  0.98905746     0.20100
F989        F  0.06285436  0.44673355  0.98146146    -0.12800
F990        F  0.04442847  0.00998126  0.98489077    -0.15100
F991        F  0.16885787  0.48382360  0.51445118    -0.15100
F992        F  0.15132242  0.04748537  0.51637479    -0.12800
N993        N  0.12599654  0.93034352  0.49523632    -0.01800
C994        C  0.13918525  0.91321203  0.02010200     0.00800
C995        C  0.15410882  0.88627731  0.00899203    -0.22100
C996        C  0.14999339  0.88675947  0.47614829    -0.22300
C997        C  0.13211203  0.91356108  0.46839777     0.00700
H998        H  0.16448240  0.86672671  0.02355378     0.14400
H999        H  0.15765349  0.86843376  0.45998955     0.14500
N1000       N  0.33669450  0.56896096  0.99787749    -0.01800
C1001       C  0.32012872  0.53999099  0.99017647     0.00800
C1002       C  0.28786811  0.54025072  0.99824611    -0.22100
C1003       C  0.28522634  0.56798254  0.01553550    -0.22300
C1004       C  0.31594913  0.58338653  0.01746540     0.00700
H1005       H  0.26986663  0.51928614  0.99825867     0.14400
H1006       H  0.26473900  0.57211282  0.03072836     0.14500
N1007       N  0.40636975  0.98708424  0.16232526    -0.01800
C1008       C  0.42391030  0.98876489  0.18997944     0.00800
C1009       C  0.41061035  0.50995304  0.21124820    -0.22100
C1010       C  0.38712650  0.52511935  0.19429614    -0.22300
C1011       C  0.38749142  0.51373500  0.16310501     0.00700
H1012       H  0.42031119  0.51772323  0.23411712     0.14400
H1013       H  0.37645955  0.54734985  0.20174496     0.14500
N1014       N  0.03659084  0.49504187  0.35710522    -0.01800
C1015       C  0.05681621  0.51397598  0.33624969     0.00800
C1016       C  0.06880114  0.49429271  0.31327920    -0.22100
C1017       C  0.05803331  0.96202231  0.32163738    -0.22300
C1018       C  0.04111599  0.96258442  0.35062134     0.00700
H1019       H  0.08748509  0.50174914  0.29545534     0.14400
H1020       H  0.06812613  0.94035202  0.31211844     0.14500
N1021       N  0.48668267  0.83851494  0.08868420    -0.01800
C1022       C  0.46553197  0.84265085  0.11323061     0.00800
C1023       C  0.47406998  0.82625069  0.14147437    -0.22100
C1024       C  0.50128673  0.81120134  0.13458297    -0.22300
C1025       C  0.00940791  0.82038252  0.10274586     0.00700
H1026       H  0.46083905  0.82388614  0.16421804     0.14400
H1027       H  0.01434835  0.79655556  0.15187827     0.14500
N1028       N  0.46056316  0.62183601  0.43328626    -0.01800
C1029       C  0.48146580  0.60861311  0.41191000     0.00800
C1030       C  0.98275025  0.57480050  0.42055755    -0.22100
C1031       C  0.47145266  0.57018333  0.45188819    -0.22300
C1032       C  0.46092376  0.60057088  0.45996554     0.00700
H1033       H  0.99902006  0.55826075  0.41021297     0.14400
H1034       H  0.97641323  0.54937653  0.46818766     0.14500
N1035       N  0.37595316  0.91555416  0.00816258    -0.01800
C1036       C  0.39579079  0.91181683  0.48294115     0.00800
C1037       C  0.42589194  0.90474424  0.49412922    -0.22100
C1038       C  0.42318733  0.90059276  0.02714625    -0.22300
C1039       C  0.39181033  0.90590931  0.03482971     0.00700
H1040       H  0.44542668  0.89673373  0.47972870     0.14400
H1041       H  0.44067712  0.89052346  0.04323233     0.14500
N1042       N  0.08776577  0.56461969  0.00184524    -0.01800
C1043       C  0.07365468  0.57222463  0.02990059     0.00800
C1044       C  0.04362030  0.58365900  0.02476356    -0.22100
C1045       C  0.04025627  0.58670672  0.49235501    -0.22300
C1046       C  0.06807112  0.57688167  0.47887840     0.00700
H1047       H  0.02868534  0.59457572  0.04231920     0.14400
H1048       H  0.02325865  0.60179771  0.48031054     0.14500
N1049       N  0.40409188  0.98998554  0.35967887    -0.01800
C1050       C  0.40155203  0.96349992  0.34020135     0.00800
C1051       C  0.37864469  0.96803691  0.31659282    -0.22100
C1052       C  0.36418211  0.49615599  0.32310709    -0.22300
C1053       C  0.37941069  0.50898266  0.34975369     0.00700
H1054       H  0.37157592  0.95158540  0.29752154     0.14400
H1055       H  0.34403362  0.50580210  0.31024669     0.14500
N1056       N  0.04606261  0.98862195  0.13932456    -0.01800
C1057       C  0.04510736  0.51886198  0.12289257     0.00800
C1058       C  0.03705453  0.51389266  0.09106483    -0.22100
C1059       C  0.03882915  0.98068246  0.08627677    -0.22300
C1060       C  0.04717466  0.96609770  0.11559026     0.00700
H1061       H  0.03663650  0.53298289  0.07187596     0.14400
H1062       H  0.04078513  0.97008278  0.06282556     0.14500
N1063       N  0.48318088  0.82824160  0.45072732    -0.01800
C1064       C  0.45734573  0.81619298  0.43373406     0.00800
C1065       C  0.46251185  0.78695497  0.41933220    -0.22100
C1066       C  0.49375320  0.78164343  0.42494772    -0.22300
C1067       C  0.00670882  0.80897485  0.44117399     0.00700
H1068       H  0.44609445  0.77271789  0.40410834     0.14400
H1069       H  0.00682472  0.76360595  0.41254664     0.14500
N1070       N  0.47106640  0.64628654  0.08978314    -0.01800
C1071       C  0.49396517  0.66972828  0.09967252     0.00800
C1072       C  0.47939846  0.69640724  0.11191421    -0.22100
C1073       C  0.44694562  0.68787817  0.11227594    -0.22300
C1074       C  0.44246717  0.65628028  0.10022744     0.00700
H1075       H  0.99104298  0.71723948  0.12403336     0.14400
H1076       H  0.42925166  0.70060375  0.12534238     0.14500
N1077       N  0.17739275  0.75122218  0.41195282    -0.01800
C1078       C  0.17387807  0.78391728  0.41766736     0.00800
C1079       C  0.15731502  0.78561790  0.44670110    -0.22100
C1080       C  0.14594163  0.75361659  0.45616564    -0.22300
C1081       C  0.15729860  0.73315364  0.43357037     0.00700
H1082       H  0.14777379  0.80777173  0.45576255     0.14400
H1083       H  0.12749555  0.74686905  0.47441057     0.14500
N1084       N  0.15674984  0.75545755  0.13229007    -0.01800
C1085       C  0.15805703  0.72578910  0.14971130     0.00800
C1086       C  0.16762969  0.73186770  0.18091233    -0.22100
C1087       C  0.16636827  0.76548021  0.18461132    -0.22300
C1088       C  0.15678707  0.77891468  0.15527234     0.00700
H1089       H  0.16905477  0.71351258  0.20055866     0.14400
H1090       H  0.16556705  0.77708439  0.20766398     0.14500
N1091       N  0.12499794  0.68250223  0.27209356    -0.01800
C1092       C  0.13650996  0.67389242  0.24333642     0.00800
C1093       C  0.16669439  0.66229714  0.24617894    -0.22100
C1094       C  0.17301527  0.66089221  0.27818723    -0.22300
C1095       C  0.14636980  0.67116925  0.29369224     0.00700
H1096       H  0.17963047  0.65018217  0.22786395     0.14400
H1097       H  0.19047545  0.64551549  0.28905117     0.14500
O1098       O  0.10127797  0.55472848  0.33119287    -0.79300
O1099       O  0.15152339  0.68415465  0.40448654    -0.63900
O1100       O  0.12212570  0.59690058  0.38029901    -1.10500
C1101       C  0.01582341  0.62401871  0.40476108     1.07600
O1102       O  0.11249755  0.69280680  0.43965973    -0.77100
O1103       O  0.08963293  0.62742940  0.45466153    -0.64700
Ni1104     Ni  0.14044497  0.58171751  0.34132728     1.34900
C1105       C  0.07960693  0.59718173  0.45052033     0.86400
O1106       O  0.18306337  0.63150817  0.39167887    -0.77700
O1107       O  0.18364792  0.60454889  0.34604509    -0.88000
C1108       C  0.13973482  0.70110082  0.42590326     0.85900
O1109       O  0.12648590  0.61939849  0.31680862    -0.66200
O1110       O  0.03077523  0.64063346  0.42645454    -0.85500
C1111       C  0.13599447  0.64967836  0.32161752     0.86800
C1112       C  0.19841028  0.62191542  0.36725120     1.08300
H1113       H  0.08813590  0.66540624  0.37396102     0.40100
O1114       O  0.09212578  0.64945870  0.39147508    -1.08100
O1115       O  0.07178084  0.58660265  0.42309791    -0.64800
Ni1116     Ni  0.07666887  0.60562604  0.37964360     1.26300
O1117       O  0.14283259  0.66008822  0.34924414    -0.65000
O1118       O  0.03122955  0.61494587  0.38015519    -0.77300
C1119       C  0.07422258  0.54582119  0.34506451     0.86200
O1120       O  0.06269974  0.56195622  0.36733278    -0.64500
Ni1121     Ni  0.07382930  0.66449970  0.43052128     1.27400
Ni1122     Ni  0.13760450  0.64065590  0.39229207     1.26100
H1123       H  0.12612017  0.58094165  0.39780789     0.40700
N1124       N  0.37078404  0.67580373  0.26734319    -0.01800
C1125       C  0.38934164  0.70431905  0.27276793     0.00800
C1126       C  0.42102876  0.70150259  0.26373249    -0.22100
C1127       C  0.42122296  0.67264545  0.24785475    -0.22300
C1128       C  0.38965360  0.65935832  0.24746880     0.00700
H1129       H  0.44027232  0.72125633  0.26208413     0.14400
H1130       H  0.44069789  0.66633774  0.23231992     0.14500
N1131       N  0.25270731  0.62383075  0.33772703    -0.01800
C1132       C  0.23248251  0.63733393  0.35945884     0.00800
C1133       C  0.23110472  0.67102700  0.35038326    -0.22100
C1134       C  0.24166104  0.67518946  0.31885808    -0.22300
C1135       C  0.25176859  0.64457770  0.31071974     0.00700
H1136       H  0.21502904  0.68769227  0.36076525     0.14400
H1137       H  0.23638974  0.69601678  0.30268217     0.14500
O1138       O  0.34156774  0.54985532  0.35461255    -0.79300
O1139       O  0.33259274  0.69506279  0.38060135    -0.63900
O1140       O  0.36637171  0.61338947  0.35729922    -1.10500
C1141       C  0.35374623  0.58907114  0.47194487     1.07600
O1142       O  0.37223651  0.69643063  0.41493787    -0.77100
O1143       O  0.41229091  0.64900909  0.44057665    -0.64700
Ni1144     Ni  0.34530347  0.58788150  0.32482044     1.34900
C1145       C  0.42682217  0.62752729  0.42525767     0.86400
O1146       O  0.35305275  0.67186415  0.32223251    -0.77700
O1147       O  0.35101883  0.62519545  0.29352756    -0.88000
C1148       C  0.34652697  0.70841650  0.40438963     0.85900
O1149       O  0.30023647  0.59582926  0.33128412    -0.66200
O1150       O  0.35820705  0.62073466  0.47509863    -0.85500
C1151       C  0.28651791  0.61870961  0.34518738     0.86800
C1152       C  0.35633480  0.65695722  0.29550997     1.08300
H1153       H  0.32501685  0.62817787  0.41693025     0.40100
O1154       O  0.34727426  0.63368585  0.41068410    -1.08100
O1155       O  0.41118097  0.60743917  0.40695517    -0.64800
Ni1156     Ni  0.36545068  0.59336339  0.40100027     1.26300
O1157       O  0.30285049  0.64050219  0.36112414    -0.65000
O1158       O  0.36042458  0.57507400  0.44549293    -0.77300
C1159       C  0.36735109  0.53817571  0.36514075     0.86200
O1160       O  0.38210706  0.55269182  0.38772579    -0.64500
Ni1161     Ni  0.36689545  0.65832036  0.44448940     1.27400
Ni1162     Ni  0.34859863  0.65402425  0.36701346     1.26100
H1163       H  0.38852010  0.61853401  0.35047563     0.40700
N1164       N  0.08311837  0.81467433  0.27730927    -0.01800
C1165       C  0.06755005  0.83039334  0.25300147     0.00800
C1166       C  0.05330537  0.85762671  0.26452323    -0.22100
C1167       C  0.06026394  0.85871613  0.29680435    -0.22300
C1168       C  0.07888057  0.83238807  0.30390299     0.00700
H1169       H  0.04187738  0.87666566  0.25024769     0.14400
H1170       H  0.05399230  0.87777710  0.31285414     0.14500
O1171       O  0.05745741  0.80172199  0.42061871    -0.79300
O1172       O  0.17148627  0.89054434  0.34654261    -0.63900
O1173       O  0.10772198  0.84760876  0.40522035    -1.10500
C1174       C  0.05306904  0.94008904  0.37634009     1.07600
O1175       O  0.16128514  0.94396982  0.35351079    -0.77100
O1176       O  0.13525220  0.93288430  0.41383705    -0.64700
Ni1177     Ni  0.09750420  0.80103872  0.39853304     1.34900
C1178       C  0.11787523  0.91798117  0.43629336     0.86400
O1179       O  0.17084140  0.83730876  0.38995044    -0.77700
O1180       O  0.13743401  0.79635630  0.37715958    -0.88000
C1181       C  0.17897040  0.92194390  0.34340960     0.85900
O1182       O  0.07879173  0.81318132  0.35841577    -0.66200
O1183       O  0.07794396  0.95052416  0.39105025    -0.85500
C1184       C  0.09482833  0.82837797  0.33512732     0.86800
C1185       C  0.16256202  0.80624055  0.39155510     1.08300
H1186       H  0.10134290  0.89763714  0.34241289     0.40100
O1187       O  0.10812876  0.89913550  0.36480730    -1.08100
O1188       O  0.08987891  0.90353142  0.43105410    -0.64800
Ni1189     Ni  0.07552526  0.87785170  0.39365965     1.26300
O1190       O  0.12317844  0.84282917  0.33874920    -0.65000
O1191       O  0.04475140  0.90890937  0.37823882    -0.77300
C1192       C  0.03814799  0.82316821  0.42844060     0.86200
O1193       O  0.04292585  0.85462306  0.42158948    -0.64500
Ni1194     Ni  0.11931662  0.94529566  0.37244282     1.27400
Ni1195     Ni  0.13975023  0.86834818  0.37548989     1.26100
H1196       H  0.11454734  0.84982866  0.42722502     0.40700
N1197       N  0.30821635  0.75470916  0.41260968    -0.01800
C1198       C  0.30835214  0.77875189  0.43491665     0.00800
C1199       C  0.32898398  0.77137669  0.45999093    -0.22100
C1200       C  0.34489824  0.74468902  0.45137312    -0.22300
C1201       C  0.33244226  0.73519973  0.42216842     0.00700
H1202       H  0.33507138  0.78649203  0.48037675     0.14400
H1203       H  0.36445453  0.73414488  0.46447395     0.14500
N1204       N  0.23292924  0.91405244  0.31953066    -0.01800
C1205       C  0.26131916  0.92418494  0.33342008     0.00800
C1206       C  0.25872203  0.95183383  0.35137575    -0.24900
C1207       C  0.22731029  0.95865100  0.35018437    -0.22300
C1208       C  0.21164645  0.93398928  0.33251158     0.00700
H1209       H  0.27687239  0.96321657  0.36684149     0.14400
H1210       H  0.21629818  0.97579627  0.36555808     0.14500
N1211       N  0.33803508  0.83099913  0.26111563    -0.01800
C1212       C  0.32011537  0.83206042  0.28838215     0.00800
C1213       C  0.28973844  0.84171988  0.28110021    -0.22100
C1214       C  0.28981561  0.84908882  0.24843192    -0.22300
C1215       C  0.31995296  0.84313128  0.23706319     0.00700
H1216       H  0.27136017  0.84764324  0.29808199     0.14400
H1217       H  0.27092056  0.86008592  0.23499135     0.14500
O1218       O  0.40331308  0.90720770  0.32915878    -0.79300
O1219       O  0.29365438  0.82492452  0.40011897    -0.63900
O1220       O  0.35377152  0.89815243  0.36998803    -1.10500
C1221       C  0.42733624  0.83168502  0.42884110     1.07600
O1222       O  0.31617797  0.83558621  0.44474898    -0.77100
O1223       O  0.37273147  0.86256893  0.46528979    -0.64700
Ni1224     Ni  0.35823631  0.90662760  0.32443811     1.34900
C1225       C  0.38325138  0.89200806  0.45687908     0.86400
O1226       O  0.28848238  0.88684004  0.36689658    -0.77700
O1227       O  0.31188975  0.90721407  0.31929886    -0.88000
C1228       C  0.30110690  0.81436697  0.42809258     0.85900
O1229       O  0.36010846  0.86114182  0.31631151    -0.66200
O1230       O  0.40252023  0.81459139  0.44048385    -0.85500
C1231       C  0.33505132  0.84199891  0.31851102     0.86800
C1232       C  0.28820719  0.90353890  0.33951821     1.08300
H1233       H  0.36583695  0.82422979  0.38532711     0.40100
O1234       O  0.36120371  0.84206425  0.39914499    -1.08100
O1235       O  0.38504795  0.90337402  0.42783745    -0.64800
Ni1236     Ni  0.39132650  0.87980842  0.38943024     1.26300
O1237       O  0.31915587  0.83845756  0.34459383    -0.65000
O1238       O  0.42692994  0.85857028  0.41035615    -0.77300
C1239       C  0.41317030  0.92974042  0.34748578     0.86200
O1240       O  0.41888171  0.91975277  0.37623353    -0.64500
Ni1241     Ni  0.35916164  0.82470522  0.44276395     1.27400
Ni1242     Ni  0.32283717  0.86239249  0.38379622     1.26100
H1243       H  0.34895889  0.91848811  0.38006381     0.40700
N1244       N  0.23396497  0.59699215  0.18195784    -0.01800
C1245       C  0.20973075  0.57378598  0.17457670     0.00800
C1246       C  0.22232982  0.54712092  0.16016303    -0.22100
C1247       C  0.25457943  0.55542476  0.15585582    -0.22300
C1248       C  0.26097461  0.58671464  0.16807459     0.00700
H1249       H  0.20894302  0.52657348  0.14902618     0.14400
H1250       H  0.27043542  0.54263720  0.14061278     0.14500
O1251       O  0.30545830  0.61923041  0.05782235    -0.79300
O1252       O  0.35709877  0.65519605  0.19964196    -0.63900
O1253       O  0.34337228  0.63991861  0.10865431    -1.10500
C1254       C  0.38878861  0.54090218  0.13677402     1.07600
O1255       O  0.39679970  0.62091484  0.20895022    -0.77100
O1256       O  0.41802759  0.63113736  0.14695009    -0.64700
Ni1257     Ni  0.30125332  0.64745806  0.09309977     1.34900
C1258       C  0.41806460  0.63223512  0.11617596     0.86400
O1259       O  0.33934473  0.69526363  0.14607256    -0.77700
O1260       O  0.29402632  0.67767045  0.12603719    -0.88000
C1261       C  0.37910351  0.64341820  0.21752698     0.85900
O1262       O  0.28495893  0.61074373  0.12049114    -0.66200
O1263       O  0.40947965  0.56496080  0.13951256    -0.85500
C1264       C  0.28515195  0.61047102  0.15125472     0.86800
C1265       C  0.31503333  0.70159432  0.12889190     1.08300
H1266       H  0.34376516  0.58772735  0.16984593     0.40100
O1267       O  0.35961357  0.60185651  0.15731650    -1.08100
O1268       O  0.39899897  0.61264103  0.09996704    -0.64800
Ni1269     Ni  0.35469104  0.59414980  0.11175459     1.26300
O1270       O  0.30447829  0.63043792  0.16674881    -0.65000
O1271       O  0.36463015  0.54689265  0.11930397    -0.77300
C1272       C  0.32464157  0.59839683  0.04842966     0.86200
O1273       O  0.34737671  0.58764027  0.06596204    -0.64500
Ni1274     Ni  0.40156439  0.59378546  0.17319415     1.27400
Ni1275     Ni  0.34885225  0.64795103  0.15405466     1.26100
H1276       H  0.35893102  0.65415618  0.09586317     0.40700
N1277       N  0.21693065  0.90535337  0.18247958    -0.01800
C1278       C  0.23705019  0.89957882  0.15766549     0.00800
C1279       C  0.22880448  0.91629952  0.12949431    -0.22100
C1280       C  0.20257473  0.93295290  0.13685478    -0.22300
C1281       C  0.19469544  0.92438839  0.16895769     0.00700
H1282       H  0.24138874  0.91745667  0.10641564     0.14400
H1283       H  0.18971562  0.94790716  0.11970304     0.14500
N1284       N  0.29583871  0.75559032  0.10484969    -0.01800
C1285       C  0.27731457  0.75310238  0.07794612     0.00800
C1286       C  0.29043872  0.73254544  0.05644665    -0.22100
C1287       C  0.31557571  0.71891914  0.07216181    -0.22300
C1288       C  0.31586051  0.72995614  0.10353849     0.00700
H1289       H  0.27998918  0.72427220  0.03406460     0.14400
H1290       H  0.32674989  0.69716420  0.06419460     0.14500
O1291       O  0.33055798  0.80108523  0.08577179    -0.79300
O1292       O  0.39934410  0.93294060  0.14158638    -0.63900
O1293       O  0.36301932  0.84287155  0.12987749    -1.10500
C1294       C  0.26744507  0.88447867  0.15999464     1.07600
O1295       O  0.36309732  0.94924192  0.17611424    -0.77100
O1296       O  0.34635843  0.88481441  0.20232632    -0.64700
Ni1297     Ni  0.37245106  0.82448850  0.08904963     1.34900
C1298       C  0.33197212  0.85563461  0.20500277     0.86400
O1299       O  0.42362975  0.87225037  0.13315301    -0.77700
O1300       O  0.41620798  0.84323544  0.08839989    -0.88000
C1301       C  0.38875166  0.95487085  0.15932418     0.85900
O1302       O  0.35998888  0.86252292  0.06343961    -0.66200
O1303       O  0.28565289  0.89269680  0.18273935    -0.85500
C1304       C  0.37626617  0.89058763  0.06443376     0.86800
C1305       C  0.43374796  0.85460626  0.11078881     1.08300
H1306       H  0.33192889  0.91255290  0.11929655     0.40100
O1307       O  0.33752393  0.89872306  0.13789787    -1.08100
O1308       O  0.31970304  0.84137853  0.18066528    -0.64800
Ni1309     Ni  0.31957661  0.85307219  0.13451153     1.26300
O1310       O  0.38593639  0.90209652  0.09081295    -0.65000
O1311       O  0.27673778  0.86683640  0.13747733    -0.77300
C1312       C  0.31124409  0.78890452  0.10813069     0.86200
O1313       O  0.30373109  0.80669877  0.13122961    -0.64500
Ni1314     Ni  0.32591680  0.91850894  0.17748448     1.27400
Ni1315     Ni  0.38151537  0.88755427  0.13564499     1.26100
H1316       H  0.36912534  0.82791691  0.14742641     0.40700
O1317       O  0.06289235  0.80683138  0.10734031    -0.79300
O1318       O  0.15091236  0.89120778  0.18954629    -0.63900
O1319       O  0.07644140  0.85570578  0.14660997    -1.10500
C1320       C  0.12821057  0.91303463  0.05376021     1.07600
O1321       O  0.14106410  0.93795792  0.16504913    -0.77100
O1322       O  0.10070220  0.95407685  0.11997602    -0.64700
Ni1323     Ni  0.06277654  0.80913264  0.15293308     1.34900
C1324       C  0.07235703  0.94206410  0.11522590     0.86400
O1325       O  0.09810142  0.85440426  0.20977850    -0.77700
O1326       O  0.06238514  0.81100749  0.19970578    -0.88000
C1327       C  0.16100592  0.92019683  0.17902224     0.85900
O1328       O  0.10316608  0.79073144  0.15211716    -0.66200
O1329       O  0.14199123  0.93360002  0.07289700    -0.85500
C1330       C  0.13161074  0.80283263  0.15613062     0.86800
C1331       C  0.07711489  0.83095948  0.21882884     1.08300
H1332       H  0.14532334  0.87707544  0.11868190     0.40100
O1333       O  0.12753553  0.88922785  0.12566537    -1.08100
O1334       O  0.06559631  0.91167371  0.10827767    -0.64800
Ni1335     Ni  0.09053163  0.87277379  0.10355147     1.26300
O1336       O  0.13854376  0.83320293  0.16298957    -0.65000
O1337       O  0.10695263  0.88967817  0.06243997    -0.77300
C1338       C  0.04316699  0.82457314  0.09302952     0.86200
O1339       O  0.05347997  0.85342502  0.08242756    -0.64500
Ni1340     Ni  0.14118147  0.93572834  0.11951586     1.27400
Ni1341     Ni  0.11371298  0.87192009  0.16860992     1.26100
H1342       H  0.05874271  0.86801863  0.15352039     0.40700
O1343       O  0.15826017  0.56013223  0.15276796    -0.79300
O1344       O  0.03830936  0.63489824  0.10349470    -0.63900
O1345       O  0.12393178  0.61041531  0.12101707    -1.10500
C1346       C  0.11610497  0.66234830  0.21713654     1.07600
O1347       O  0.04189896  0.68306136  0.12821075    -0.77100
O1348       O  0.10670610  0.69946673  0.13730981    -0.64700
Ni1349     Ni  0.13297831  0.56468195  0.11390857     1.34900
C1350       C  0.13570123  0.69552553  0.14498838     0.86400
O1351       O  0.08470589  0.61126825  0.06851119    -0.77700
O1352       O  0.10911227  0.56327591  0.07367047    -0.88000
C1353       C  0.02687751  0.66215790  0.11035260     0.85900
O1354       O  0.09627378  0.54360999  0.13691063    -0.66200
O1355       O  0.09894966  0.68260667  0.20173399    -0.85500
C1356       C  0.06759711  0.54853204  0.12910882     0.86800
C1357       C  0.09125756  0.58307477  0.05845126     1.08300
H1358       H  0.06485421  0.61857502  0.16853487     0.40100
O1359       O  0.08005803  0.63374200  0.15623749    -1.08100
O1360       O  0.14442800  0.66699158  0.15507644    -0.64800
Ni1361     Ni  0.12315167  0.62226887  0.16493471     1.26300
O1362       O  0.05926618  0.57767069  0.12068492    -0.65000
O1363       O  0.11985379  0.63305372  0.20836473    -0.77300
C1364       C  0.17619045  0.58186775  0.16696616     0.86200
O1365       O  0.16640181  0.61021156  0.17256478    -0.64500
Ni1366     Ni  0.07162639  0.67966853  0.16386140     1.27400
Ni1367     Ni  0.08113406  0.62218805  0.11197369     1.26100
H1368       H  0.13918483  0.62548151  0.10867328     0.40700
C1369       C  0.24572605  0.93413222  0.26293053     0.25200
C1370       C  0.23160159  0.90908687  0.28495507    -0.22900
C1371       C  0.21332322  0.88172881  0.27236171     0.20100
C1372       C  0.20955714  0.87945998  0.23856068     0.25200
C1373       C  0.22374329  0.90468873  0.21683748    -0.22800
C1374       C  0.24149951  0.93211624  0.22953041     0.20100
F1375       F  0.25339780  0.95798607  0.20942017    -0.12800
F1376       F  0.26221123  0.96174572  0.27394173    -0.15100
F1377       F  0.19166239  0.85301251  0.22706421    -0.15100
F1378       F  0.19875265  0.85757049  0.29276095    -0.12800
C1379       C  0.25273988  0.65490189  0.24927242     0.25200
C1380       C  0.25092583  0.63239206  0.27687495    -0.22900
C1381       C  0.24363029  0.59805523  0.27203372     0.20100
C1382       C  0.23671531  0.58689816  0.24117572     0.25200
C1383       C  0.23698251  0.60955033  0.21402638    -0.22800
C1384       C  0.24543449  0.64357175  0.21832739     0.20100
F1385       F  0.24619283  0.66586965  0.19250480    -0.12800
F1386       F  0.26174908  0.68788390  0.25196881    -0.15100
F1387       F  0.23029622  0.55355135  0.23768799    -0.15100
F1388       F  0.24233302  0.57497752  0.29723853    -0.12800
C1389       C  0.39374666  0.76579014  0.28105715     0.25200
C1390       C  0.37641243  0.73744341  0.26937036    -0.22900
C1391       C  0.34897535  0.74166177  0.25043100     0.20100
C1392       C  0.33802622  0.77323480  0.24506731     0.25200
C1393       C  0.35471927  0.80148599  0.25771963    -0.22800
C1394       C  0.38329635  0.79763878  0.27467368     0.20100
F1395       F  0.40031694  0.82458988  0.28622959    -0.12800
F1396       F  0.42048525  0.76260202  0.29916632    -0.15100
F1397       F  0.30965503  0.77580889  0.22949972    -0.15100
F1398       F  0.33261937  0.71538848  0.23682452    -0.12800
C1399       C  0.08155281  0.72084729  0.27628332     0.25200
C1400       C  0.11443601  0.71581543  0.27459746    -0.22900
C1401       C  0.13709535  0.74401297  0.27421086     0.20100
C1402       C  0.12689538  0.77649232  0.27544505     0.25200
C1403       C  0.09400189  0.78142394  0.27675286    -0.22800
C1404       C  0.07139679  0.75341009  0.27730829     0.20100
F1405       F  0.03943917  0.75777371  0.27900888    -0.12800
F1406       F  0.05939725  0.69418603  0.27682618    -0.15100
F1407       F  0.14900955  0.80319135  0.27483118    -0.15100
F1408       F  0.16911867  0.74002855  0.27212995    -0.12800
C1409       C  0.18770198  0.73369018  0.08710713     0.25200
C1410       C  0.17980894  0.76099756  0.10524537    -0.22900
C1411       C  0.20102984  0.79050991  0.10203056     0.20100
C1412       C  0.23206046  0.78930465  0.08891636     0.25200
C1413       C  0.24240145  0.75894846  0.07877219    -0.22800
C1414       C  0.21904100  0.73212043  0.07509570     0.20100
F1415       F  0.22719899  0.70288151  0.06323222    -0.12800
F1416       F  0.16641730  0.70663760  0.08456518    -0.15100
F1417       F  0.25243371  0.81741781  0.08760305    -0.15100
F1418       F  0.19313279  0.81975355  0.11406158    -0.12800
C1419       C  0.22741301  0.75962573  0.37812171     0.25200
C1420       C  0.20903593  0.74118719  0.40277426    -0.22900
C1421       C  0.22497114  0.71783674  0.42245206     0.20100
C1422       C  0.25863127  0.71808779  0.42172294     0.25200
C1423       C  0.27717037  0.74149757  0.40142049    -0.22800
C1424       C  0.26115474  0.75942803  0.37730719     0.20100
F1425       F  0.27838915  0.77924356  0.35488016    -0.12800
F1426       F  0.21303740  0.77996847  0.35643498    -0.15100
F1427       F  0.27322850  0.69876361  0.44418812    -0.15100
F1428       F  0.20870330  0.69726228  0.44503219    -0.12800
C1429       C  0.45457245  0.58990166  0.02088733     0.25200
C1430       C  0.46170296  0.61220429  0.99379749    -0.22900
C1431       C  0.47362724  0.64523326  0.99929414     0.20100
C1432       C  0.47843956  0.65568686  0.03069145     0.25200
C1433       C  0.47172045  0.63344254  0.05776202    -0.22800
C1434       C  0.45968954  0.60043194  0.05250081     0.20100
F1435       F  0.45259311  0.57852065  0.07807108    -0.12800
F1436       F  0.44215052  0.55808634  0.01688709    -0.15100
F1437       F  0.98860768  0.68818206  0.03458893    -0.15100
F1438       F  0.98147237  0.66752044  0.47416222    -0.12800
C1439       C  0.96275246  0.81387527  0.03997509     0.25200
C1440       C  0.48141856  0.84008861  0.05389176    -0.22900
C1441       C  0.49885651  0.86396807  0.03294926     0.20100
C1442       C  0.49868429  0.86079606  0.49905239     0.25200
C1443       C  0.48020303  0.83438017  0.48513292    -0.22800
C1444       C  0.96185653  0.81120140  0.50629289     0.20100
F1445       F  0.94473726  0.78438173  0.49452120    -0.12800
F1446       F  0.94679333  0.78964692  0.05934142    -0.15100
F1447       F  0.51701962  0.88319459  0.47979161    -0.15100
F1448       F  0.51628541  0.89023765  0.04532133    -0.12800
C1449       C  0.48654793  0.48688169  0.39086661     0.25200
C1450       C  0.00454414  0.00399077  0.36496666    -0.22900
C1451       C  0.48760280  0.02487081  0.34344644     0.20100
C1452       C  0.45391242  0.02427288  0.34489921     0.25200
C1453       C  0.43611205  0.00326213  0.36796716    -0.22800
C1454       C  0.45281587  0.48718264  0.39265942     0.20100
F1455       F  0.43631236  0.46881530  0.41666024    -0.12800
F1456       F  0.50162300  0.46753843  0.41289113    -0.15100
F1457       F  0.43844833  0.04061118  0.32084498    -0.15100
F1458       F  0.00317558  0.04288164  0.31858167    -0.12800
C1459       C  0.46951343  0.95309740  0.17888602     0.25200
C1460       C  0.45885602  0.98284774  0.19014384    -0.22900
C1461       C  0.48215818  0.50934256  0.19609122     0.20100
C1462       C  0.01367056  0.50842426  0.18455976     0.25200
C1463       C  0.02216655  0.98190929  0.16545618    -0.22800
C1464       C  0.00087641  0.95243335  0.16674962     0.20100
F1465       F  0.00906454  0.92386524  0.15356701    -0.12800
F1466       F  0.44923875  0.92504422  0.17842177    -0.15100
F1467       F  0.03470017  0.53542829  0.18845079    -0.15100
F1468       F  0.47389840  0.53777236  0.20950994    -0.12800
C1469       C  0.37336747  0.97428444  0.52136070     0.25200
C1470       C  0.35949431  0.94559285  0.00696623    -0.22900
C1471       C  0.33376277  0.94860453  0.98565243     0.20100
C1472       C  0.32181865  0.97974502  0.97895212     0.25200
C1473       C  0.33510116  0.50801937  0.99351719    -0.22800
C1474       C  0.36131004  0.00512749  0.51502233     0.20100
F1475       F  0.37356861  0.53163222  0.53111582    -0.12800
F1476       F  0.39973144  0.97299576  0.54037685    -0.15100
F1477       F  0.29677444  0.98199659  0.95835249    -0.15100
F1478       F  0.32104815  0.92145170  0.97053134    -0.12800
C1479       C  0.07569900  0.50451876  0.49031234     0.25200
C1480       C  0.09790951  0.53099140  0.99929467    -0.22900
C1481       C  0.12919200  0.52339735  0.00782213     0.20100
C1482       C  0.13860683  0.99013216  0.00538382     0.25200
C1483       C  0.11627406  0.96408340  0.99642316    -0.22800
C1484       C  0.08469319  0.97130972  0.48942466     0.20100
F1485       F  0.06239196  0.94632310  0.48241709    -0.12800
F1486       F  0.04471644  0.51026613  0.48348673    -0.15100
F1487       F  0.16930821  0.98348389  0.01254264    -0.15100
F1488       F  0.15077403  0.54785031  0.01755908    -0.12800
N1489       N  0.12598167  0.93037433  0.99522537    -0.01800
C1490       C  0.13920163  0.91317035  0.52010431     0.00800
C1491       C  0.15411677  0.88623393  0.50898660    -0.22100
C1492       C  0.14999819  0.88679892  0.97615094    -0.22300
C1493       C  0.13211603  0.91359695  0.96838952     0.00700
H1494       H  0.16448987  0.86667837  0.52354218     0.14400
H1495       H  0.15766643  0.86847259  0.95999726     0.14500
N1496       N  0.33667748  0.56897508  0.49788430    -0.01800
C1497       C  0.32010614  0.54000620  0.49018797     0.00800
C1498       C  0.28784432  0.54027743  0.49824628    -0.22100
C1499       C  0.28520645  0.56801196  0.51553290    -0.22300
C1500       C  0.31593326  0.58340521  0.51747236     0.00700
H1501       H  0.26983843  0.51931689  0.49825649     0.14400
H1502       H  0.26471733  0.57214802  0.53072101     0.14500
N1503       N  0.40640446  0.98708996  0.66234785    -0.01800
C1504       C  0.42394869  0.98875835  0.68999976     0.00800
C1505       C  0.41062179  0.50991981  0.71125010    -0.22100
C1506       C  0.38714157  0.52510012  0.69430500    -0.22300
C1507       C  0.38750739  0.51373576  0.66310644     0.00700
H1508       H  0.42031896  0.51767103  0.73412674     0.14400
H1509       H  0.37647224  0.54732419  0.70176756     0.14500
N1510       N  0.03660977  0.49506678  0.85712043    -0.01800
C1511       C  0.05683882  0.51400440  0.83627132     0.00800
C1512       C  0.06881802  0.49432608  0.81329288    -0.22100
C1513       C  0.05802469  0.96204237  0.82163952    -0.22300
C1514       C  0.04110534  0.96260324  0.85062235     0.00700
H1515       H  0.08750147  0.50178494  0.79546916     0.14400
H1516       H  0.06811484  0.94037135  0.81211891     0.14500
N1517       N  0.48669893  0.83852915  0.58871462    -0.01800
C1518       C  0.46556216  0.84268175  0.61326897     0.00800
C1519       C  0.47410068  0.82627774  0.64151072    -0.22100
C1520       C  0.50129957  0.81120284  0.63460813    -0.22300
C1521       C  0.00940518  0.82038212  0.60276028     0.00700
H1522       H  0.46087482  0.82391806  0.66425739     0.14400
H1523       H  0.01433824  0.79652683  0.65188269     0.14500
N1524       N  0.46059016  0.62185043  0.93329067    -0.01800
C1525       C  0.48149619  0.60864065  0.91190970     0.00800
C1526       C  0.98279190  0.57482404  0.92055733    -0.22100
C1527       C  0.47150100  0.57020087  0.95188079    -0.22300
C1528       C  0.46096427  0.60058275  0.95996663     0.00700
H1529       H  0.99906772  0.55829307  0.91020857     0.14400
H1530       H  0.97647512  0.54939345  0.96818509     0.14500
N1531       N  0.37595781  0.91551000  0.50817622    -0.01800
C1532       C  0.39578655  0.91187120  0.98292519     0.00800
C1533       C  0.42588063  0.90477121  0.99411363    -0.22100
C1534       C  0.42320740  0.90059531  0.52716417    -0.22300
C1535       C  0.39182554  0.90589473  0.53484589     0.00700
H1536       H  0.44541068  0.89675530  0.97971002     0.14400
H1537       H  0.44070880  0.89055684  0.54325605     0.14500
N1538       N  0.08775024  0.56461938  0.50184097    -0.01800
C1539       C  0.07365950  0.57226517  0.52989279     0.00800
C1540       C  0.04363140  0.58371545  0.52475822    -0.22100
C1541       C  0.04026873  0.58669952  0.99236029    -0.22300
C1542       C  0.06809318  0.57689973  0.97888634     0.00700
H1543       H  0.02870972  0.59465751  0.54230873     0.14400
H1544       H  0.02327888  0.60180395  0.98032303     0.14500
N1545       N  0.40408092  0.99001934  0.85966609    -0.01800
C1546       C  0.40153054  0.96353981  0.84018282     0.00800
C1547       C  0.37860193  0.96807755  0.81659554    -0.22100
C1548       C  0.36421024  0.49619892  0.82308250    -0.22300
C1549       C  0.37943436  0.50901492  0.84973606     0.00700
H1550       H  0.37151943  0.95163080  0.79752493     0.14400
H1551       H  0.34406111  0.50584759  0.81022517     0.14500
N1552       N  0.04606331  0.98861041  0.63928724    -0.01800
C1553       C  0.04509904  0.51886516  0.62283443     0.00800
C1554       C  0.03706204  0.51389422  0.59100241    -0.22100
C1555       C  0.03882486  0.98067006  0.58624063    -0.22300
C1556       C  0.04717130  0.96608308  0.61555340     0.00700
H1557       H  0.03664447  0.53298378  0.57181309     0.14400
H1558       H  0.04077555  0.97007024  0.56278896     0.14500
N1559       N  0.48317849  0.82825402  0.95069571    -0.01800
C1560       C  0.45733909  0.81623824  0.93369210     0.00800
C1561       C  0.46249809  0.78702745  0.91923865    -0.22100
C1562       C  0.49373628  0.78169443  0.92484665    -0.22300
C1563       C  0.00670737  0.80899032  0.94112209     0.00700
H1564       H  0.44607744  0.77282342  0.90399151     0.14400
H1565       H  0.00681705  0.76367308  0.91242112     0.14500
N1566       N  0.47103956  0.64628254  0.58978295    -0.01800
C1567       C  0.49394634  0.66972910  0.59965346     0.00800
C1568       C  0.47938649  0.69641338  0.61189426    -0.22100
C1569       C  0.44693450  0.68788276  0.61228252    -0.22300
C1570       C  0.44244822  0.65628218  0.60024334     0.00700
H1571       H  0.99105432  0.71725563  0.62397461     0.14400
H1572       H  0.42924899  0.70061289  0.62535597     0.14500
N1573       N  0.17741425  0.75126509  0.91197568    -0.01800
C1574       C  0.17389692  0.78396270  0.91767984     0.00800
C1575       C  0.15732900  0.78566899  0.94671033    -0.22100
C1576       C  0.14595275  0.75366913  0.95617906    -0.22300
C1577       C  0.15731386  0.73320058  0.93359090     0.00700
H1578       H  0.14778560  0.80782471  0.95576499     0.14400
H1579       H  0.12750222  0.74692630  0.97442056     0.14500
N1580       N  0.15673132  0.75542707  0.63232726    -0.01800
C1581       C  0.15803165  0.72575662  0.64974683     0.00800
C1582       C  0.16758835  0.73183350  0.68095327    -0.22100
C1583       C  0.16631736  0.76544394  0.68465578    -0.22300
C1584       C  0.15675314  0.77888044  0.65531162     0.00700
H1585       H  0.16900840  0.71347739  0.70059856     0.14400
H1586       H  0.16550124  0.77704453  0.70770955     0.14500
N1587       N  0.12499667  0.68248600  0.77211010    -0.01800
C1588       C  0.13648300  0.67384827  0.74335113     0.00800
C1589       C  0.16666259  0.66223872  0.74618238    -0.22100
C1590       C  0.17300812  0.66085921  0.77818560    -0.22300
C1591       C  0.14637842  0.67115820  0.79370064     0.00700
H1592       H  0.17958127  0.65010509  0.72786771     0.14400
H1593       H  0.19047112  0.64548573  0.78904931     0.14500
O1594       O  0.10132596  0.55472600  0.83125235    -0.79300
O1595       O  0.15153276  0.68420918  0.90449594    -0.63900
O1596       O  0.12214806  0.59693908  0.88033447    -1.10500
C1597       C  0.01584818  0.62405340  0.90477096     1.07600
O1598       O  0.11251906  0.69284005  0.93969075    -0.77100
O1599       O  0.08965927  0.62745281  0.95467969    -0.64700
Ni1600     Ni  0.14048017  0.58173424  0.84137923     1.34900
C1601       C  0.07962793  0.59720765  0.95053322     0.86400
O1602       O  0.18308505  0.63156806  0.89170256    -0.77700
O1603       O  0.18367370  0.60458014  0.84608689    -0.88000
C1604       C  0.13974998  0.70114621  0.92592371     0.85900
O1605       O  0.12651202  0.61939765  0.81684446    -0.66200
O1606       O  0.03079903  0.64065602  0.92647425    -0.85500
C1607       C  0.13601099  0.64968389  0.82163782     0.86800
C1608       C  0.19843248  0.62196375  0.86728074     1.08300
H1609       H  0.08815339  0.66544969  0.87398697     0.40100
O1610       O  0.09214506  0.64949880  0.89149743    -1.08100
O1611       O  0.07178995  0.58663946  0.92311002    -0.64800
Ni1612     Ni  0.07669056  0.60566795  0.87965952     1.26300
O1613       O  0.14284233  0.66011566  0.84925819    -0.65000
O1614       O  0.03125501  0.61499674  0.88015887    -0.77300
C1615       C  0.07425162  0.54584447  0.84509490     0.86200
O1616       O  0.06271401  0.56199992  0.86734020    -0.64500
Ni1617     Ni  0.07385065  0.66452846  0.93054856     1.27400
Ni1618     Ni  0.13762285  0.64070295  0.89231420     1.26100
H1619       H  0.12613710  0.58098855  0.89785223     0.40700
N1620       N  0.37079807  0.67580551  0.76736718    -0.01800
C1621       C  0.38936559  0.70431448  0.77279153     0.00800
C1622       C  0.42105080  0.70148352  0.76375754    -0.22100
C1623       C  0.42123128  0.67262744  0.74787508    -0.22300
C1624       C  0.38965675  0.65935494  0.74748847     0.00700
H1625       H  0.44030135  0.72122983  0.76210866     0.14400
H1626       H  0.44070151  0.66631312  0.73233765     0.14500
N1627       N  0.25271675  0.62386679  0.83774246    -0.01800
C1628       C  0.23250051  0.63738136  0.85947473     0.00800
C1629       C  0.23111917  0.67107095  0.85038611    -0.22100
C1630       C  0.24166512  0.67521910  0.81885696    -0.22300
C1631       C  0.25177347  0.64460472  0.81072790     0.00700
H1632       H  0.21504737  0.68774133  0.86076662     0.14400
H1633       H  0.23638654  0.69603818  0.80267382     0.14500
O1634       O  0.34157307  0.54986401  0.85463410    -0.79300
O1635       O  0.33261327  0.69506398  0.88062245    -0.63900
O1636       O  0.36638296  0.61339293  0.85731210    -1.10500
C1637       C  0.35377279  0.58906153  0.97194947     1.07600
O1638       O  0.37225625  0.69643376  0.91496106    -0.77100
O1639       O  0.41231192  0.64900875  0.94059102    -0.64700
Ni1640     Ni  0.34530038  0.58788778  0.82483941     1.34900
C1641       C  0.42684554  0.62753266  0.92526722     0.86400
O1642       O  0.35307288  0.67186898  0.82225619    -0.77700
O1643       O  0.35101233  0.62520205  0.79354690    -0.88000
C1644       C  0.34655058  0.70842313  0.90440524     0.85900
O1645       O  0.30023386  0.59584035  0.83130853    -0.66200
O1646       O  0.35823113  0.62072426  0.97510965    -0.85500
C1647       C  0.28652449  0.61873162  0.84520431     0.86800
C1648       C  0.35634431  0.65696206  0.79553252     1.08300
H1649       H  0.32503564  0.62817434  0.91694788     0.40100
O1650       O  0.34729253  0.63368447  0.91070128    -1.08100
O1651       O  0.41120529  0.60744561  0.90696178    -0.64800
Ni1652     Ni  0.36547283  0.59336534  0.90101087     1.26300
O1653       O  0.30286471  0.64051904  0.86114003    -0.65000
O1654       O  0.36045774  0.57506944  0.94549818    -0.77300
C1655       C  0.36736442  0.53818783  0.86514592     0.86200
O1656       O  0.38212764  0.55269892  0.88772898    -0.64500
Ni1657     Ni  0.36691612  0.65831595  0.94450665     1.27400
Ni1658     Ni  0.34861550  0.65402673  0.86703311     1.26100
H1659       H  0.38852967  0.61853533  0.85048229     0.40700
N1660       N  0.08310831  0.81466474  0.77730282    -0.01800
C1661       C  0.06752612  0.83037843  0.75300023     0.00800
C1662       C  0.05328906  0.85761557  0.76452349    -0.22100
C1663       C  0.06026872  0.85871651  0.79679854    -0.22300
C1664       C  0.07889037  0.83239155  0.80389336     0.00700
H1665       H  0.04185410  0.87665116  0.75025016     0.14400
H1666       H  0.05400458  0.87778181  0.81284682     0.14500
O1667       O  0.05746763  0.80174098  0.92060451    -0.79300
O1668       O  0.17147702  0.89057056  0.84652797    -0.63900
O1669       O  0.10772743  0.84763545  0.90521290    -1.10500
C1670       C  0.05306143  0.94010742  0.87633852     1.07600
O1671       O  0.16127275  0.94399730  0.85348570    -0.77100
O1672       O  0.13525237  0.93291006  0.91382225    -0.64700
Ni1673     Ni  0.09751946  0.80106227  0.89852986     1.34900
C1674       C  0.11787835  0.91800848  0.93628257     0.86400
O1675       O  0.17085016  0.83734776  0.88994779    -0.77700
O1676       O  0.13745399  0.79638460  0.87716344    -0.88000
C1677       C  0.17895698  0.92196929  0.84338600     0.85900
O1678       O  0.07880772  0.81318820  0.85840748    -0.66200
O1679       O  0.07793797  0.95054347  0.89104538    -0.85500
C1680       C  0.09484101  0.82838595  0.83511790     0.86800
C1681       C  0.16257849  0.80627777  0.89155975     1.08300
H1682       H  0.10133657  0.89765578  0.84240178     0.40100
O1683       O  0.10812393  0.89915790  0.86479586    -1.08100
O1684       O  0.08988171  0.90355712  0.93104673    -0.64800
Ni1685     Ni  0.07552679  0.87787376  0.89365309     1.26300
O1686       O  0.12318558  0.84284923  0.83874109    -0.65000
O1687       O  0.04474725  0.90892705  0.87823526    -0.77300
C1688       C  0.03815502  0.82318531  0.92842224     0.86200
O1689       O  0.04293399  0.85464189  0.92158329    -0.64500
Ni1690     Ni  0.11930798  0.94531927  0.87242914     1.27400
Ni1691     Ni  0.13975024  0.86837640  0.87548023     1.26100
H1692       H  0.11455485  0.84985877  0.92721543     0.40700
N1693       N  0.30824488  0.75472917  0.91260498    -0.01800
C1694       C  0.30838948  0.77878432  0.93489982     0.00800
C1695       C  0.32904035  0.77143102  0.95996358    -0.22100
C1696       C  0.34495806  0.74474589  0.95134902    -0.22300
C1697       C  0.33248103  0.73523017  0.92216167     0.00700
H1698       H  0.33513152  0.78655555  0.98034207     0.14400
H1699       H  0.36452463  0.73421492  0.96444431     0.14500
N1700       N  0.23290756  0.91405546  0.81951188    -0.01800
C1701       C  0.26129833  0.92418543  0.83340124     0.00800
C1702       C  0.25870731  0.95184115  0.85134841    -0.24900
C1703       C  0.22729928  0.95866996  0.85014848    -0.22300
C1704       C  0.21163074  0.93400694  0.83248110     0.00700
H1705       H  0.27685970  0.96322471  0.86681140     0.14400
H1706       H  0.21629081  0.97582443  0.86551492     0.14500
N1707       N  0.33804356  0.83098908  0.76111030    -0.01800
C1708       C  0.32012680  0.83205842  0.78837782     0.00800
C1709       C  0.28975409  0.84173093  0.78109717    -0.22100
C1710       C  0.28983081  0.84910017  0.74843021    -0.22300
C1711       C  0.31996102  0.84312348  0.73705785     0.00700
H1712       H  0.27138303  0.84767026  0.79807965     0.14400
H1713       H  0.27094374  0.86011755  0.73499400     0.14500
O1714       O  0.40329713  0.90725275  0.82912520    -0.79300
O1715       O  0.29366140  0.82493920  0.90009792    -0.63900
O1716       O  0.35376135  0.89818643  0.86996974    -1.10500
C1717       C  0.42733709  0.83174688  0.92882656     1.07600
O1718       O  0.31616362  0.83562136  0.94473125    -0.77100
O1719       O  0.37268835  0.86264664  0.96527616    -0.64700
Ni1720     Ni  0.35821946  0.90665976  0.82441574     1.34900
C1721       C  0.38324172  0.89207231  0.95685930     0.86400
O1722       O  0.28847014  0.88684496  0.86687294    -0.77700
O1723       O  0.31187248  0.90722941  0.81927796    -0.88000
C1724       C  0.30111269  0.81438963  0.92807385     0.85900
O1725       O  0.36010898  0.86117726  0.81628529    -0.66200
O1726       O  0.40252488  0.81467802  0.94050892    -0.85500
C1727       C  0.33506468  0.84201610  0.81849813     0.86800
C1728       C  0.28818970  0.90354351  0.83949559     1.08300
H1729       H  0.36584116  0.82426417  0.88533159     0.40100
O1730       O  0.36120454  0.84210616  0.89913915    -1.08100
O1731       O  0.38507416  0.90342596  0.92781416    -0.64800
Ni1732     Ni  0.39132315  0.87984941  0.88940589     1.26300
O1733       O  0.31917417  0.83847203  0.84458372    -0.65000
O1734       O  0.42692972  0.85861281  0.91031592    -0.77300
C1735       C  0.41315639  0.92978247  0.84745314     0.86200
O1736       O  0.41887681  0.91979037  0.87619667    -0.64500
Ni1737     Ni  0.35915660  0.82476772  0.94276515     1.27400
Ni1738     Ni  0.32283470  0.86241696  0.88377934     1.26100
H1739       H  0.34894582  0.91852022  0.88004716     0.40700
N1740       N  0.23393652  0.59699328  0.68197689    -0.01800
C1741       C  0.20971005  0.57377807  0.67459349     0.00800
C1742       C  0.22232109  0.54712075  0.66017808    -0.22100
C1743       C  0.25456983  0.55543601  0.65587673    -0.22300
C1744       C  0.26095359  0.58672691  0.66809711     0.00700
H1745       H  0.20894290  0.52656907  0.64903926     0.14400
H1746       H  0.27043326  0.54265473  0.64063610     0.14500
O1747       O  0.30543625  0.61923727  0.55784110    -0.79300
O1748       O  0.35709433  0.65521126  0.69966070    -0.63900
O1749       O  0.34335028  0.63992619  0.60867374    -1.10500
C1750       C  0.38878204  0.54091225  0.63678568     1.07600
O1751       O  0.39678142  0.62091229  0.70896924    -0.77100
O1752       O  0.41800642  0.63114830  0.64696935    -0.64700
Ni1753     Ni  0.30123356  0.64747018  0.59311663     1.34900
C1754       C  0.41804308  0.63224376  0.61619511     0.86400
O1755       O  0.33933135  0.69527653  0.64608650    -0.77700
O1756       O  0.29401142  0.67768810  0.62604967    -0.88000
C1757       C  0.37909547  0.64342332  0.71754570     0.85900
O1758       O  0.28493224  0.61076343  0.62051351    -0.66200
O1759       O  0.40946708  0.56497504  0.63952458    -0.85500
C1760       C  0.28512804  0.61048981  0.65127744     0.86800
C1761       C  0.31502199  0.70160888  0.62890269     1.08300
H1762       H  0.34374592  0.58773795  0.66986773     0.40100
O1763       O  0.35959416  0.60186562  0.65733634    -1.08100
O1764       O  0.39897531  0.61265095  0.59998723    -0.64800
Ni1765     Ni  0.35466939  0.59415701  0.61177512     1.26300
O1766       O  0.30445934  0.63045352  0.66677113    -0.65000
O1767       O  0.36461422  0.54690036  0.61932718    -0.77300
C1768       C  0.32462109  0.59840575  0.54844572     0.86200
O1769       O  0.34735425  0.58764663  0.56598034    -0.64500
Ni1770     Ni  0.40154665  0.59379222  0.67320975     1.27400
Ni1771     Ni  0.34883565  0.64796233  0.65407310     1.26100
H1772       H  0.35890888  0.65416240  0.59588151     0.40700
N1773       N  0.21691258  0.90531600  0.68246489    -0.01800
C1774       C  0.23705331  0.89957968  0.65765497     0.00800
C1775       C  0.22880805  0.91630969  0.62948838    -0.22100
C1776       C  0.20255877  0.93293289  0.63684569    -0.22300
C1777       C  0.19467283  0.92434501  0.66894241     0.00700
H1778       H  0.24140602  0.91749460  0.60641600     0.14400
H1779       H  0.18969906  0.94789064  0.61969747     0.14500
N1780       N  0.29584149  0.75561339  0.60486365    -0.01800
C1781       C  0.27731400  0.75313522  0.57796112     0.00800
C1782       C  0.29043511  0.73258236  0.55645519    -0.22100
C1783       C  0.31556445  0.71894000  0.57216955    -0.22300
C1784       C  0.31585209  0.72997032  0.60354848     0.00700
H1785       H  0.27998295  0.72431615  0.53407182     0.14400
H1786       H  0.32673042  0.69718176  0.56419861     0.14500
O1787       O  0.33062724  0.80105784  0.58580211    -0.79300
O1788       O  0.39936791  0.93295506  0.64160351    -0.63900
O1789       O  0.36304456  0.84288872  0.62990205    -1.10500
C1790       C  0.26746175  0.88450401  0.65998394     1.07600
O1791       O  0.36312569  0.94925453  0.67613649    -0.77100
O1792       O  0.34636530  0.88482468  0.70233897    -0.64700
Ni1793     Ni  0.37250029  0.82450412  0.58908252     1.34900
C1794       C  0.33197955  0.85564377  0.70500322     0.86400
O1795       O  0.42365479  0.87226695  0.63320243    -0.77700
O1796       O  0.41624447  0.84328953  0.58843047    -0.88000
C1797       C  0.38877872  0.95488316  0.65934369     0.85900
O1798       O  0.36000713  0.86252606  0.56347792    -0.66200
O1799       O  0.28566341  0.89272809  0.68273311    -0.85500
C1800       C  0.37628959  0.89058885  0.56445914     0.86800
C1801       C  0.43377948  0.85463822  0.61083142     1.08300
H1802       H  0.33196654  0.91258095  0.61930486     0.40100
O1803       O  0.33755290  0.89874679  0.63790653    -1.08100
O1804       O  0.31970893  0.84139997  0.68066058    -0.64800
Ni1805     Ni  0.31960178  0.85310122  0.63451000     1.26300
O1806       O  0.38597208  0.90210301  0.59083296    -0.65000
O1807       O  0.27676671  0.86687493  0.63746170    -0.77300
C1808       C  0.31126910  0.78891841  0.60814031     0.86200
O1809       O  0.30374344  0.80673463  0.63121801    -0.64500
Ni1810     Ni  0.32593791  0.91852859  0.67749268     1.27400
Ni1811     Ni  0.38154086  0.88757166  0.63566960     1.26100
H1812       H  0.36914057  0.82793541  0.64745665     0.40700
O1813       O  0.06287953  0.80679588  0.60734175    -0.79300
O1814       O  0.15088578  0.89118204  0.68954745    -0.63900
O1815       O  0.07641989  0.85568465  0.64659785    -1.10500
C1816       C  0.12822366  0.91298449  0.55375875     1.07600
O1817       O  0.14104685  0.93792928  0.66504200    -0.77100
O1818       O  0.10069115  0.95404527  0.61996841    -0.64700
Ni1819     Ni  0.06275218  0.80911091  0.65293215     1.34900
C1820       C  0.07234944  0.94203938  0.61519284     0.86400
O1821       O  0.09806738  0.85439242  0.70977264    -0.77700
O1822       O  0.06235199  0.81099494  0.69970369    -0.88000
C1823       C  0.16098576  0.92016561  0.67901527     0.85900
O1824       O  0.10313745  0.79070362  0.65213264    -0.66200
O1825       O  0.14198210  0.93356522  0.57289412    -0.85500
C1826       C  0.13158110  0.80280305  0.65615160     0.86800
C1827       C  0.07708292  0.83094711  0.71882531     1.08300
H1828       H  0.14531449  0.87704392  0.61868873     0.40100
O1829       O  0.12752340  0.88919677  0.62566290    -1.08100
O1830       O  0.06559287  0.91165015  0.60823073    -0.64800
Ni1831     Ni  0.09052909  0.87273679  0.60353915     1.26300
O1832       O  0.13851541  0.83317597  0.66300035    -0.65000
O1833       O  0.10697510  0.88961801  0.56243374    -0.77300
C1834       C  0.04316076  0.82453970  0.59302449     0.86200
O1835       O  0.05348850  0.85337906  0.58240179    -0.64500
Ni1836     Ni  0.14116901  0.93569665  0.61951075     1.27400
Ni1837     Ni  0.11368815  0.87189834  0.66860539     1.26100
H1838       H  0.05872062  0.86800335  0.65349652     0.40700
O1839       O  0.15824342  0.56011003  0.65277530    -0.79300
O1840       O  0.03832388  0.63491543  0.60344718    -0.63900
O1841       O  0.12392570  0.61040429  0.62103335    -1.10500
C1842       C  0.11605994  0.66230542  0.71716132     1.07600
O1843       O  0.04186406  0.68303757  0.62823493    -0.77100
O1844       O  0.10668076  0.69943715  0.63732984    -0.64700
Ni1845     Ni  0.13295932  0.56467007  0.61391618     1.34900
C1846       C  0.13567416  0.69549484  0.64501770     0.86400
O1847       O  0.08475821  0.61130862  0.56849203    -0.77700
O1848       O  0.10909583  0.56327755  0.57367318    -0.88000
C1849       C  0.02687035  0.66215505  0.61033492     0.85900
O1850       O  0.09624177  0.54362429  0.63691682    -0.66200
O1851       O  0.09892030  0.68257291  0.70175207    -0.85500
C1852       C  0.06757556  0.54853988  0.62906991     0.86800
C1853       C  0.09127609  0.58310196  0.55843942     1.08300
H1854       H  0.06481253  0.61854160  0.66851227     0.40100
O1855       O  0.08002631  0.63371540  0.65623485    -1.08100
O1856       O  0.14439493  0.66696139  0.65511572    -0.64800
Ni1857     Ni  0.12311447  0.62223694  0.66495595     1.26300
O1858       O  0.05925495  0.57767651  0.62062421    -0.65000
O1859       O  0.11978880  0.63300560  0.70839178    -0.77300
C1860       C  0.17616320  0.58184448  0.66698820     0.86200
O1861       O  0.16636066  0.61017796  0.67260512    -0.64500
Ni1862     Ni  0.07159694  0.67963871  0.66387874     1.27400
Ni1863     Ni  0.08113998  0.62219464  0.61196016     1.26100
H1864       H  0.13919312  0.62546933  0.60870599     0.40700
C1865       C  0.24569287  0.93411990  0.76290902     0.25200
C1866       C  0.23157985  0.90907504  0.78493908    -0.22900
C1867       C  0.21330789  0.88170745  0.77235318     0.20100
C1868       C  0.20953896  0.87943033  0.73855236     0.25200
C1869       C  0.22371977  0.90465853  0.71682366    -0.22800
C1870       C  0.24146244  0.93209676  0.72951123     0.20100
F1871       F  0.25333946  0.95797252  0.70939712    -0.12800
F1872       F  0.26217076  0.96174052  0.77391356    -0.15100
F1873       F  0.19164298  0.85297938  0.72706287    -0.15100
F1874       F  0.19874712  0.85754861  0.79275873    -0.12800
C1875       C  0.25273166  0.65491185  0.74927849     0.25200
C1876       C  0.25091247  0.63240843  0.77688628    -0.22900
C1877       C  0.24358877  0.59807408  0.77205422     0.20100
C1878       C  0.23666451  0.58691277  0.74119878     0.25200
C1879       C  0.23694597  0.60955875  0.71404344    -0.22800
C1880       C  0.24541361  0.64357848  0.71833731     0.20100
F1881       F  0.24617887  0.66587140  0.69251031    -0.12800
F1882       F  0.26175958  0.68789105  0.75196597    -0.15100
F1883       F  0.23022653  0.55356712  0.73771898    -0.15100
F1884       F  0.24227337  0.57500417  0.79726598    -0.12800
C1885       C  0.39377612  0.76579379  0.78105666     0.25200
C1886       C  0.37644579  0.73744259  0.76937413    -0.22900
C1887       C  0.34901313  0.74165528  0.75042637     0.20100
C1888       C  0.33805457  0.77322418  0.74506272     0.25200
C1889       C  0.35473603  0.80147895  0.75771941    -0.22800
C1890       C  0.38331446  0.79763916  0.77467546     0.20100
F1891       F  0.40032675  0.82459441  0.78623307    -0.12800
F1892       F  0.42052163  0.76261405  0.79915768    -0.15100
F1893       F  0.30968601  0.77578982  0.72948886    -0.15100
F1894       F  0.33267168  0.71537989  0.73680881    -0.12800
C1895       C  0.08154556  0.72083950  0.77619336     0.25200
C1896       C  0.11443196  0.71580044  0.77460823    -0.22900
C1897       C  0.13709264  0.74399313  0.77431942     0.20100
C1898       C  0.12689018  0.77647269  0.77555510     0.25200
C1899       C  0.09399333  0.78141281  0.77674574    -0.22800
C1900       C  0.07138721  0.75340343  0.77719694     0.20100
F1901       F  0.03942497  0.75777075  0.77878608    -0.12800
F1902       F  0.05938887  0.69418200  0.77667003    -0.15100
F1903       F  0.14900769  0.80316446  0.77505339    -0.15100
F1904       F  0.16912133  0.74000602  0.77233461    -0.12800
C1905       C  0.18770592  0.73367886  0.58714824     0.25200
C1906       C  0.17980518  0.76097677  0.60529580    -0.22900
C1907       C  0.20102106  0.79049461  0.60209430     0.20100
C1908       C  0.23204812  0.78930730  0.58896707     0.25200
C1909       C  0.24239637  0.75896320  0.57880206    -0.22800
C1910       C  0.21904281  0.73212859  0.57512204     0.20100
F1911       F  0.22720610  0.70290196  0.56323613    -0.12800
F1912       F  0.16643017  0.70661918  0.58460347    -0.15100
F1913       F  0.25241322  0.81742633  0.58766288    -0.15100
F1914       F  0.19312559  0.81972656  0.61415124    -0.12800
C1915       C  0.22743157  0.75964819  0.87813827     0.25200
C1916       C  0.20905856  0.74122603  0.90280322    -0.22900
C1917       C  0.22499572  0.71788265  0.92248836     0.20100
C1918       C  0.25865609  0.71811975  0.92174340     0.25200
C1919       C  0.27719440  0.74151556  0.90142597    -0.22800
C1920       C  0.26117302  0.75944166  0.87731267     0.20100
F1921       F  0.27840272  0.77924534  0.85487298    -0.12800
F1922       F  0.21305193  0.77998134  0.85644598    -0.15100
F1923       F  0.27325832  0.69879685  0.94420590    -0.15100
F1924       F  0.20873110  0.69732805  0.94508655    -0.12800
C1925       C  0.45449957  0.58989919  0.52088596     0.25200
C1926       C  0.46164843  0.61219553  0.49379528    -0.22900
C1927       C  0.47357066  0.64522443  0.49929111     0.20100
C1928       C  0.47837865  0.65568084  0.53068749     0.25200
C1929       C  0.47166724  0.63343725  0.55775992    -0.22800
C1930       C  0.45961892  0.60043013  0.55249989     0.20100
F1931       F  0.45250204  0.57852454  0.57807012    -0.12800
F1932       F  0.44205381  0.55809188  0.51688555    -0.15100
F1933       F  0.98852369  0.68818500  0.53457413    -0.15100
F1934       F  0.98154948  0.66752102  0.97417349    -0.12800
C1935       C  0.96270055  0.81393485  0.54000716     0.25200
C1936       C  0.48142506  0.84011016  0.55392290    -0.22900
C1937       C  0.49888217  0.86396973  0.53297515     0.20100
C1938       C  0.49865891  0.86080511  0.99902570     0.25200
C1939       C  0.48020386  0.83437442  0.98510308    -0.22800
C1940       C  0.96191024  0.81115176  0.00625959     0.20100
F1941       F  0.94483366  0.78431051  0.99447754    -0.12800
F1942       F  0.94669576  0.78974109  0.55937704    -0.15100
F1943       F  0.51696602  0.88323043  0.97976650    -0.15100
F1944       F  0.51633029  0.89023032  0.54534126    -0.12800
C1945       C  0.48656546  0.48689896  0.89085264     0.25200
C1946       C  0.00453605  0.00401247  0.86496433    -0.22900
C1947       C  0.48760040  0.02491008  0.84347180     0.20100
C1948       C  0.45390849  0.02430807  0.84490915     0.25200
C1949       C  0.43610022  0.00328851  0.86796414    -0.22800
C1950       C  0.45283352  0.48719426  0.89263900     0.20100
F1951       F  0.43632749  0.46880403  0.91662314    -0.12800
F1952       F  0.50163743  0.46754652  0.91287168    -0.15100
F1953       F  0.43845252  0.04065613  0.82085521    -0.15100
F1954       F  0.00318635  0.04292641  0.81859497    -0.12800
C1955       C  0.46953966  0.95308250  0.67887594     0.25200
C1956       C  0.45889228  0.98282973  0.69015267    -0.22900
C1957       C  0.48216694  0.50933129  0.69608102     0.20100
C1958       C  0.01369256  0.50841898  0.68452013     0.25200
C1959       C  0.02217923  0.98189938  0.66542978    -0.22800
C1960       C  0.00088802  0.95242538  0.66672886     0.20100
F1961       F  0.00906826  0.92385895  0.65353738    -0.12800
F1962       F  0.44926188  0.92503220  0.67841061    -0.15100
F1963       F  0.03471236  0.53543323  0.68839885    -0.15100
F1964       F  0.47390235  0.53775200  0.70951322    -0.12800
C1965       C  0.37337400  0.97432380  0.02136365     0.25200
C1966       C  0.35949571  0.94554736  0.50696627    -0.22900
C1967       C  0.33376412  0.94854892  0.48565059     0.20100
C1968       C  0.32180929  0.97968431  0.47894927     0.25200
C1969       C  0.33506783  0.50802965  0.49354823    -0.22800
C1970       C  0.36131172  0.00516881  0.01504447     0.20100
F1971       F  0.37366612  0.53164277  0.03101421    -0.12800
F1972       F  0.39975502  0.97302780  0.04035496    -0.15100
F1973       F  0.29675019  0.98192281  0.45836622    -0.15100
F1974       F  0.32105301  0.92138967  0.47053701    -0.12800
C1975       C  0.07572771  0.50453223  0.99025988     0.25200
C1976       C  0.09788774  0.53098500  0.49931716    -0.22900
C1977       C  0.12917700  0.52339721  0.50782510     0.20100
C1978       C  0.13854890  0.99007043  0.50559128     0.25200
C1979       C  0.11627453  0.96404923  0.49645064    -0.22800
C1980       C  0.08464610  0.97131307  0.98958484     0.20100
F1981       F  0.06231117  0.94630238  0.98272574    -0.12800
F1982       F  0.04475148  0.51028469  0.98341035    -0.15100
F1983       F  0.16920318  0.98340039  0.51293299    -0.15100
F1984       F  0.15076593  0.54785707  0.51753589    -0.12800
N1985       N  0.62629107  0.43084416  0.49542198    -0.01800
C1986       C  0.63934007  0.41344687  0.02022187     0.00800
C1987       C  0.65435183  0.38662762  0.00898963    -0.22100
C1988       C  0.65041918  0.38742015  0.47615320    -0.22300
C1989       C  0.63255346  0.41425944  0.46849481     0.00700
H1990       H  0.66466387  0.36697286  0.02346380     0.14400
H1991       H  0.65810705  0.36917560  0.45991431     0.14500
N1992       N  0.83737012  0.06927682  0.99811280    -0.01800
C1993       C  0.82078462  0.04034489  0.99037180     0.00800
C1994       C  0.78849689  0.04067255  0.99826667    -0.22100
C1995       C  0.78579691  0.06850987  0.01539477    -0.22300
C1996       C  0.81653462  0.08385114  0.01747702     0.00700
H1997       H  0.77045954  0.01974750  0.99818549     0.14400
H1998       H  0.76522355  0.07276019  0.03041880     0.14500
N1999       N  0.90623560  0.48700372  0.16271126    -0.01800
C2000       C  0.92380166  0.48874398  0.19034623     0.00800
C2001       C  0.91046753  0.00969463  0.21101788    -0.22100
C2002       C  0.88698928  0.02488736  0.19409282    -0.22300
C2003       C  0.88750330  0.01370315  0.16283473     0.00700
H2004       H  0.92012439  0.01738522  0.23393033     0.14400
H2005       H  0.87629461  0.04707891  0.20160767     0.14500
N2006       N  0.53676162  0.99504507  0.35701948    -0.01800
C2007       C  0.55703711  0.01404042  0.33625487     0.00800
C2008       C  0.56891618  0.99446011  0.31313565    -0.22100
C2009       C  0.55781578  0.46200036  0.32193362    -0.22300
C2010       C  0.54093238  0.46267759  0.35092271     0.00700
H2011       H  0.58759453  0.00196297  0.29531875     0.14400
H2012       H  0.56797539  0.44030742  0.31253541     0.14500
N2013       N  0.98655694  0.33850239  0.08912053    -0.01800
C2014       C  0.96521957  0.34238763  0.11356106     0.00800
C2015       C  0.97368351  0.32595024  0.14181604    -0.22100
C2016       C  0.00113706  0.31122709  0.13507107    -0.22300
C2017       C  0.50943044  0.32054387  0.10315256     0.00700
H2018       H  0.96037916  0.32353465  0.16451637     0.14400
H2019       H  0.51434566  0.29665878  0.15225777     0.14500
N2020       N  0.96105585  0.12173514  0.43342326    -0.01800
C2021       C  0.98192623  0.10843108  0.41208129     0.00800
C2022       C  0.48320524  0.07461894  0.42090640    -0.22100
C2023       C  0.97182974  0.07005932  0.45209889    -0.22300
C2024       C  0.96132234  0.10047360  0.46011976     0.00700
H2025       H  0.49948426  0.05805255  0.41061523     0.14400
H2026       H  0.47681806  0.04931056  0.46859010     0.14500
N2027       N  0.87579519  0.41557376  0.00828921    -0.01800
C2028       C  0.89570751  0.41203029  0.48304504     0.00800
C2029       C  0.92579024  0.40494019  0.49429375    -0.22100
C2030       C  0.92299886  0.40065130  0.02735201    -0.22300
C2031       C  0.89159415  0.40592395  0.03497913     0.00700
H2032       H  0.94538585  0.39702048  0.47991538     0.14400
H2033       H  0.94050035  0.39063552  0.04345977     0.14500
N2034       N  0.58811752  0.06437230  0.00201824    -0.01800
C2035       C  0.57407109  0.07190769  0.03012645     0.00800
C2036       C  0.54403649  0.08339122  0.02507878    -0.22100
C2037       C  0.54064684  0.08656943  0.49269610    -0.22300
C2038       C  0.56842312  0.07675397  0.47913818     0.00700
H2039       H  0.52914558  0.09428188  0.04269500     0.14400
H2040       H  0.52366943  0.10175380  0.48073990     0.14500
N2041       N  0.90399927  0.49006353  0.35951703    -0.01800
C2042       C  0.90159291  0.46356396  0.34004461     0.00800
C2043       C  0.87872955  0.46804949  0.31637529    -0.22100
C2044       C  0.86431398  0.99621820  0.32332141    -0.22300
C2045       C  0.87966845  0.00901064  0.34991761     0.00700
H2046       H  0.87178325  0.45161173  0.29725449     0.14400
H2047       H  0.84416396  0.00593384  0.31051893     0.14500
N2048       N  0.54604984  0.48862220  0.13936353    -0.01800
C2049       C  0.54517382  0.01889984  0.12285824     0.00800
C2050       C  0.53707435  0.01405352  0.09101978    -0.22100
C2051       C  0.53888865  0.48052635  0.08633033    -0.22300
C2052       C  0.54722945  0.46603959  0.11569032     0.00700
H2053       H  0.53659216  0.03321538  0.07192072     0.14400
H2054       H  0.54090908  0.46986636  0.06291401     0.14500
N2055       N  0.98322903  0.32844192  0.45108101    -0.01800
C2056       C  0.95741529  0.31637526  0.43406072     0.00800
C2057       C  0.96263607  0.28718358  0.41960437    -0.22100
C2058       C  0.99389347  0.28192770  0.42520034    -0.22300
C2059       C  0.50681083  0.30934312  0.44148646     0.00700
H2060       H  0.94625508  0.27296908  0.40432663     0.14400
H2061       H  0.50701725  0.26404111  0.41276717     0.14500
N2062       N  0.97154258  0.14633626  0.08993333    -0.01800
C2063       C  0.99449216  0.16977047  0.09975269     0.00800
C2064       C  0.97998849  0.19646238  0.11204630    -0.22100
C2065       C  0.94753150  0.18797195  0.11249245    -0.22300
C2066       C  0.94297838  0.15638631  0.10043419     0.00700
H2067       H  0.49172178  0.21734165  0.12419235     0.14400
H2068       H  0.92988333  0.20073200  0.12558677     0.14500
N2069       N  0.67752897  0.25141415  0.41235856    -0.01800
C2070       C  0.67414309  0.28411392  0.41822472     0.00800
C2071       C  0.65753470  0.28569983  0.44725377    -0.22100
C2072       C  0.64600226  0.25368113  0.45651583    -0.22300
C2073       C  0.65736515  0.23328723  0.43385725     0.00700
H2074       H  0.64808212  0.30785251  0.45643162     0.14400
H2075       H  0.62753943  0.24688944  0.47473305     0.14500
N2076       N  0.65696681  0.25550601  0.13252929    -0.01800
C2077       C  0.65841059  0.22583246  0.14991711     0.00800
C2078       C  0.66798364  0.23191887  0.18111762    -0.22100
C2079       C  0.66667363  0.26553385  0.18482805    -0.22300
C2080       C  0.65704719  0.27897913  0.15550524     0.00700
H2081       H  0.66949555  0.21355577  0.20075020     0.14400
H2082       H  0.66592298  0.27714081  0.20788208     0.14500
N2083       N  0.62550164  0.18249131  0.27226196    -0.01800
C2084       C  0.63696285  0.17382806  0.24348700     0.00800
C2085       C  0.66705629  0.16201556  0.24636208    -0.22100
C2086       C  0.67335505  0.16054213  0.27837646    -0.22300
C2087       C  0.64680219  0.17102716  0.29387629     0.00700
H2088       H  0.67990234  0.14979288  0.22805943     0.14400
H2089       H  0.69071275  0.14504281  0.28925221     0.14500
O2090       O  0.60163112  0.05468404  0.33137618    -0.79300
O2091       O  0.65185959  0.18417592  0.40480510    -0.63900
O2092       O  0.62258487  0.09682391  0.38054576    -1.10500
C2093       C  0.51624061  0.12382205  0.40500199     1.07600
O2094       O  0.61274342  0.19276170  0.43991564    -0.77100
O2095       O  0.58989033  0.12737725  0.45498759    -0.64700
Ni2096     Ni  0.64080350  0.08169056  0.34150952     1.34900
C2097       C  0.57996680  0.09710088  0.45082023     0.86400
O2098       O  0.68350893  0.13152555  0.39184471    -0.77700
O2099       O  0.68399774  0.10453626  0.34620517    -0.88000
C2100       C  0.63996699  0.20113269  0.42617771     0.85900
O2101       O  0.62672162  0.11939121  0.31711133    -0.66200
O2102       O  0.53114328  0.14050906  0.42666287    -0.85500
C2103       C  0.63633538  0.14965214  0.32186277     0.86800
C2104       C  0.69880678  0.12188774  0.36739555     1.08300
H2105       H  0.58851549  0.16525386  0.37421197     0.40100
O2106       O  0.59252328  0.14933444  0.39174479    -1.08100
O2107       O  0.57227772  0.08647439  0.42338322    -0.64800
Ni2108     Ni  0.57711611  0.10547677  0.37992843     1.26300
O2109       O  0.64323917  0.16007351  0.34947668    -0.65000
O2110       O  0.53166884  0.11471331  0.38043337    -0.77300
C2111       C  0.57457972  0.04575922  0.34524941     0.86200
O2112       O  0.56315744  0.06179155  0.36764196    -0.64500
Ni2113     Ni  0.57414402  0.16440790  0.43074587     1.27400
Ni2114     Ni  0.63802501  0.14062241  0.39254113     1.26100
H2115       H  0.62662341  0.08085923  0.39803540     0.40700
N2116       N  0.87119745  0.17587574  0.26770717    -0.01800
C2117       C  0.88983638  0.20430525  0.27327091     0.00800
C2118       C  0.92153848  0.20132971  0.26437885    -0.22100
C2119       C  0.92162349  0.17259324  0.24827058    -0.22300
C2120       C  0.89000163  0.15948363  0.24772011     0.00700
H2121       H  0.94086717  0.22099804  0.26287384     0.14400
H2122       H  0.94109978  0.16628321  0.23274012     0.14500
N2123       N  0.75306973  0.12362397  0.33782629    -0.01800
C2124       C  0.73289673  0.13721519  0.35955130     0.00800
C2125       C  0.73160066  0.17090593  0.35043760    -0.22100
C2126       C  0.74209164  0.17497480  0.31888749    -0.22300
C2127       C  0.75210347  0.14431252  0.31077109     0.00700
H2128       H  0.71561339  0.18765141  0.36083676     0.14400
H2129       H  0.73682993  0.19579479  0.30270028     0.14500
O2130       O  0.84191195  0.04992976  0.35491675    -0.79300
O2131       O  0.83264657  0.19488411  0.38096425    -0.63900
O2132       O  0.86677768  0.11342491  0.35757721    -1.10500
C2133       C  0.85453360  0.08918602  0.47217965     1.07600
O2134       O  0.87244607  0.19658090  0.41514008    -0.77100
O2135       O  0.91296350  0.14929370  0.44042218    -0.64700
Ni2136     Ni  0.84581155  0.08787871  0.32506960     1.34900
C2137       C  0.92736980  0.12755692  0.42532503     0.86400
O2138       O  0.85312619  0.17180668  0.32250727    -0.77700
O2139       O  0.85168479  0.12515239  0.29380086    -0.88000
C2140       C  0.84659537  0.20835862  0.40468513     0.85900
O2141       O  0.80071958  0.09587105  0.33121529    -0.66200
O2142       O  0.85926253  0.12082379  0.47534871    -0.85500
C2143       C  0.78688553  0.11853752  0.34532161     0.86800
C2144       C  0.85672137  0.15693415  0.29580665     1.08300
H2145       H  0.82552776  0.12816739  0.41737994     0.40100
O2146       O  0.84775082  0.13368487  0.41100993    -1.08100
O2147       O  0.91163601  0.10732898  0.40723290    -0.64800
Ni2148     Ni  0.86590659  0.09337135  0.40125655     1.26300
O2149       O  0.80310460  0.14015903  0.36156535    -0.65000
O2150       O  0.86095772  0.07512251  0.44570500    -0.77300
C2151       C  0.86768213  0.03818868  0.36538842     0.86200
O2152       O  0.88250651  0.05267775  0.38794662    -0.64500
Ni2153     Ni  0.86754370  0.15841736  0.44467978     1.27400
Ni2154     Ni  0.84883680  0.15395868  0.36732170     1.26100
H2155       H  0.88891923  0.11866612  0.35077157     0.40700
N2156       N  0.58392378  0.31483832  0.27767201    -0.01800
C2157       C  0.56825213  0.33051150  0.25339489     0.00800
C2158       C  0.55381680  0.35761113  0.26494052    -0.22100
C2159       C  0.56069995  0.35866506  0.29722472    -0.22300
C2160       C  0.57948099  0.33246834  0.30429367     0.00700
H2161       H  0.54224968  0.37656855  0.25069263     0.14400
H2162       H  0.55424315  0.37761371  0.31331793     0.14500
O2163       O  0.55758289  0.30212394  0.42096809    -0.79300
O2164       O  0.67177937  0.39096545  0.34719041    -0.63900
O2165       O  0.60789832  0.34799560  0.40571868    -1.10500
C2166       C  0.55304810  0.44036250  0.37670147     1.07600
O2167       O  0.66123151  0.44443263  0.35348958    -0.77100
O2168       O  0.63540464  0.43355003  0.41392265    -0.64700
Ni2169     Ni  0.59772217  0.30141455  0.39904972     1.34900
C2170       C  0.61815754  0.41861776  0.43646350     0.86400
O2171       O  0.67104473  0.33768248  0.39069450    -0.77700
O2172       O  0.63771104  0.29669746  0.37779237    -0.88000
C2173       C  0.67907357  0.42238761  0.34370888     0.85900
O2174       O  0.57917015  0.31344501  0.35883995    -0.66200
O2175       O  0.57796841  0.45092504  0.39126835    -0.85500
C2176       C  0.59531278  0.32854637  0.33557410     0.86800
C2177       C  0.66281323  0.30658343  0.39221757     1.08300
H2178       H  0.60147742  0.39778156  0.34280468     0.40100
O2179       O  0.60826763  0.39943260  0.36518741    -1.08100
O2180       O  0.59016734  0.40406082  0.43137377    -0.64800
Ni2181     Ni  0.57569617  0.37821116  0.39412693     1.26300
O2182       O  0.62360292  0.34310213  0.33929018    -0.65000
O2183       O  0.54484333  0.40916758  0.37869970    -0.77300
C2184       C  0.53829427  0.32356365  0.42886387     0.86200
O2185       O  0.54314442  0.35504019  0.42216272    -0.64500
Ni2186     Ni  0.61930431  0.44570370  0.37254272     1.27400
Ni2187     Ni  0.63996606  0.36872547  0.37605283     1.26100
H2188       H  0.61468389  0.35022554  0.42773716     0.40700
N2189       N  0.80821901  0.25461082  0.41275135    -0.01800
C2190       C  0.80837497  0.27879774  0.43491578     0.00800
C2191       C  0.82900560  0.27154674  0.46002990    -0.22100
C2192       C  0.84489141  0.24477813  0.45157132    -0.22300
C2193       C  0.83242693  0.23512873  0.42242070     0.00700
H2194       H  0.83511405  0.28678227  0.48032686     0.14400
H2195       H  0.86446251  0.23431333  0.46471421     0.14500
N2196       N  0.73302800  0.41460441  0.31977490    -0.01800
C2197       C  0.76141026  0.42456063  0.33375742     0.00800
C2198       C  0.75881884  0.45205095  0.35193985    -0.24900
C2199       C  0.72742110  0.45895738  0.35073158    -0.22300
C2200       C  0.71174512  0.43449042  0.33283170     0.00700
H2201       H  0.77695835  0.46327323  0.36751651     0.14400
H2202       H  0.71640340  0.47598725  0.36622801     0.14500
N2203       N  0.83811307  0.33069176  0.26090988    -0.01800
C2204       C  0.82022597  0.33163561  0.28822899     0.00800
C2205       C  0.78970707  0.34093271  0.28097682    -0.22100
C2206       C  0.78963837  0.34820884  0.24829320    -0.22300
C2207       C  0.81985621  0.34258729  0.23688555     0.00700
H2208       H  0.77133577  0.34684298  0.29798020     0.14400
H2209       H  0.77060648  0.35903740  0.23488964     0.14500
O2210       O  0.90335693  0.40727424  0.32905906    -0.79300
O2211       O  0.79383406  0.32488235  0.39987297    -0.63900
O2212       O  0.85391514  0.39822067  0.36996802    -1.10500
C2213       C  0.92744046  0.33191159  0.42903891     1.07600
O2214       O  0.81611982  0.33568980  0.44456538    -0.77100
O2215       O  0.87240972  0.36294229  0.46529833    -0.64700
Ni2216     Ni  0.85829698  0.40696263  0.32443025     1.34900
C2217       C  0.88325016  0.39227284  0.45688623     0.86400
O2218       O  0.78860604  0.38687861  0.36681307    -0.77700
O2219       O  0.81197621  0.40775077  0.31937110    -0.88000
C2220       C  0.80115578  0.31440086  0.42791117     0.85900
O2221       O  0.85998396  0.36164056  0.31561904    -0.66200
O2222       O  0.90259835  0.31499913  0.44086059    -0.85500
C2223       C  0.83513274  0.34220803  0.31817346     0.86800
C2224       C  0.78830930  0.40385282  0.33959142     1.08300
H2225       H  0.86600412  0.32426524  0.38539903     0.40100
O2226       O  0.86135372  0.34215664  0.39914114    -1.08100
O2227       O  0.88547243  0.40352765  0.42781292    -0.64800
Ni2228     Ni  0.89150431  0.37988044  0.38936930     1.26300
O2229       O  0.81944672  0.33858125  0.34439740    -0.65000
O2230       O  0.92708790  0.35859993  0.41026578    -0.77300
C2231       C  0.91327637  0.42981038  0.34734217     0.86200
O2232       O  0.91907510  0.41981168  0.37606966    -0.64500
Ni2233     Ni  0.85916289  0.32496094  0.44282837     1.27400
Ni2234     Ni  0.82299598  0.36243579  0.38367083     1.26100
H2235       H  0.84908985  0.41849971  0.38013877     0.40700
N2236       N  0.73423845  0.09680915  0.18195290    -0.01800
C2237       C  0.71004350  0.07363951  0.17441462     0.00800
C2238       C  0.72266546  0.04715917  0.15972537    -0.22100
C2239       C  0.75492476  0.05551208  0.15553212    -0.22300
C2240       C  0.76129439  0.08668842  0.16801580     0.00700
H2241       H  0.70929889  0.02671433  0.14841300     0.14400
H2242       H  0.77081146  0.04287615  0.14018822     0.14500
O2243       O  0.80584573  0.11962494  0.05786360    -0.79300
O2244       O  0.85735364  0.15540180  0.19987183    -0.63900
O2245       O  0.84368072  0.14026422  0.10880562    -1.10500
C2246       C  0.88895395  0.04108389  0.13671779     1.07600
O2247       O  0.89708036  0.12112236  0.20908400    -0.77100
O2248       O  0.91843363  0.13125696  0.14712607    -0.64700
Ni2249     Ni  0.80154308  0.14773040  0.09322978     1.34900
C2250       C  0.91849099  0.13240348  0.11635162     0.86400
O2251       O  0.83947617  0.19552811  0.14628232    -0.77700
O2252       O  0.79421645  0.17778223  0.12625747    -0.88000
C2253       C  0.87940276  0.14362190  0.21771843     0.85900
O2254       O  0.78531941  0.11092674  0.12053465    -0.66200
O2255       O  0.90969561  0.06507199  0.13965744    -0.85500
C2256       C  0.78544959  0.11058485  0.15130519     0.86800
C2257       C  0.81514871  0.20176772  0.12907454     1.08300
H2258       H  0.84403316  0.08795924  0.16989448     0.40100
O2259       O  0.85989450  0.10212201  0.15741418    -1.08100
O2260       O  0.89934510  0.11293598  0.10010514    -0.64800
Ni2261     Ni  0.85500888  0.09450777  0.11182626     1.26300
O2262       O  0.80471188  0.13056325  0.16687383    -0.65000
O2263       O  0.86485920  0.04723617  0.11923337    -0.77300
C2264       C  0.82508507  0.09884178  0.04847547     0.86200
O2265       O  0.84779669  0.08810093  0.06602979    -0.64500
Ni2266     Ni  0.90179996  0.09394440  0.17333819     1.27400
Ni2267     Ni  0.84908966  0.14821585  0.15423739     1.26100
H2268       H  0.85924842  0.15452795  0.09605084     0.40700
N2269       N  0.71705534  0.40590144  0.18271953    -0.01800
C2270       C  0.73704959  0.40002942  0.15782633     0.00800
C2271       C  0.72884416  0.41691058  0.12972835    -0.22100
C2272       C  0.70275724  0.43373748  0.13721616    -0.22300
C2273       C  0.69487306  0.42507441  0.16930060     0.00700
H2274       H  0.74134687  0.41802495  0.10660777     0.14400
H2275       H  0.68989223  0.44877625  0.12013275     0.14500
N2276       N  0.79583480  0.25563390  0.10485804    -0.01800
C2277       C  0.77727641  0.25304162  0.07798505     0.00800
C2278       C  0.79038737  0.23241034  0.05654926    -0.22100
C2279       C  0.81557246  0.21887891  0.07227283    -0.22300
C2280       C  0.81589307  0.23002466  0.10361228     0.00700
H2281       H  0.77992645  0.22405823  0.03420041     0.14400
H2282       H  0.82678765  0.19713328  0.06434669     0.14500
O2283       O  0.83091316  0.30080620  0.08582319    -0.79300
O2284       O  0.89922822  0.43290978  0.14194429    -0.63900
O2285       O  0.86284496  0.34297414  0.12987236    -1.10500
C2286       C  0.76731721  0.38465211  0.16003883     1.07600
O2287       O  0.86294361  0.44916231  0.17646606    -0.77100
O2288       O  0.84619473  0.38454788  0.20238357    -0.64700
Ni2289     Ni  0.87253375  0.32479015  0.08902312     1.34900
C2290       C  0.83178523  0.35536394  0.20488275     0.86400
O2291       O  0.92344913  0.37219802  0.13351325    -0.77700
O2292       O  0.91612857  0.34406407  0.08829338    -0.88000
C2293       C  0.88862280  0.45480192  0.15970693     0.85900
O2294       O  0.85956518  0.36280236  0.06372556    -0.66200
O2295       O  0.78553432  0.39253147  0.18287203    -0.85500
C2296       C  0.87597193  0.39080676  0.06463436     0.86800
C2297       C  0.93358709  0.35473884  0.11102635     1.08300
H2298       H  0.83186592  0.41280310  0.11948591     0.40100
O2299       O  0.83739557  0.39885096  0.13802631    -1.08100
O2300       O  0.81944062  0.34131371  0.18047169    -0.64800
Ni2301     Ni  0.81939335  0.35326729  0.13438360     1.26300
O2302       O  0.88582614  0.40225281  0.09099352    -0.65000
O2303       O  0.77655701  0.36714754  0.13737411    -0.77300
C2304       C  0.81124926  0.28895392  0.10802000     0.86200
O2305       O  0.80347688  0.30696190  0.13086738    -0.64500
Ni2306     Ni  0.82576774  0.41840359  0.17773154     1.27400
Ni2307     Ni  0.88135748  0.38760311  0.13583723     1.26100
H2308       H  0.86887100  0.32794897  0.14739982     0.40700
O2309       O  0.56291189  0.30688565  0.10777870    -0.79300
O2310       O  0.65121754  0.39152826  0.18962071    -0.63900
O2311       O  0.57673687  0.35579896  0.14689987    -1.10500
C2312       C  0.62838727  0.41315946  0.05390150     1.07600
O2313       O  0.64113367  0.43822930  0.16514701    -0.77100
O2314       O  0.60085480  0.45421924  0.11989637    -0.64700
Ni2315     Ni  0.56301551  0.30925511  0.15336137     1.34900
C2316       C  0.57249614  0.44210535  0.11535696     0.86400
O2317       O  0.59856935  0.35460797  0.21003967    -0.77700
O2318       O  0.56284238  0.31117759  0.20012399    -0.88000
C2319       C  0.66114501  0.42060400  0.17918737     0.85900
O2320       O  0.60342631  0.29086980  0.15242874    -0.66200
O2321       O  0.64226898  0.43364396  0.07304273    -0.85500
C2322       C  0.63189603  0.30295336  0.15638270     0.86800
C2323       C  0.57767077  0.33111656  0.21918609     1.08300
H2324       H  0.64555302  0.37722344  0.11882037     0.40100
O2325       O  0.62776361  0.38936365  0.12581894    -1.08100
O2326       O  0.56575761  0.41166641  0.10860123    -0.64800
Ni2327     Ni  0.59073188  0.37285032  0.10378245     1.26300
O2328       O  0.63887300  0.33334612  0.16318457    -0.65000
O2329       O  0.60707470  0.38983325  0.06259572    -0.77300
C2330       C  0.54321757  0.32467833  0.09347195     0.86200
O2331       O  0.55360468  0.35347596  0.08277225    -0.64500
Ni2332     Ni  0.64136133  0.43588100  0.11962246     1.27400
Ni2333     Ni  0.61403689  0.37208931  0.16880196     1.26100
H2334       H  0.55905940  0.36812739  0.15383752     0.40700
O2335       O  0.65830235  0.05988683  0.15323780    -0.79300
O2336       O  0.53886987  0.13499532  0.10339574    -0.63900
O2337       O  0.62435589  0.11023632  0.12115929    -1.10500
C2338       C  0.61653013  0.16235051  0.21724444     1.07600
O2339       O  0.54248371  0.18311926  0.12819407    -0.77100
O2340       O  0.60723040  0.19936213  0.13728713    -0.64700
Ni2341     Ni  0.63325494  0.06440936  0.11421774     1.34900
C2342       C  0.63618857  0.19548206  0.14510246     0.86400
O2343       O  0.58530888  0.11110081  0.06855940    -0.77700
O2344       O  0.60955964  0.06300640  0.07387481    -0.88000
C2345       C  0.52743794  0.16223453  0.11034058     0.85900
O2346       O  0.59637916  0.04346832  0.13706214    -0.66200
O2347       O  0.59945771  0.18265524  0.20178807    -0.85500
C2348       C  0.56775598  0.04850310  0.12914542     0.86800
C2349       C  0.59176928  0.08283091  0.05859406     1.08300
H2350       H  0.56525061  0.11862120  0.16854403     0.40100
O2351       O  0.58049606  0.13375601  0.15626112    -1.08100
O2352       O  0.64491802  0.16694455  0.15520615    -0.64800
Ni2353     Ni  0.62354968  0.12221402  0.16504590     1.26300
O2354       O  0.55957446  0.07769170  0.12068344    -0.65000
O2355       O  0.62021011  0.13303903  0.20847317    -0.77300
C2356       C  0.67643309  0.08167089  0.16714585     0.86200
O2357       O  0.66675563  0.11007274  0.17269860    -0.64500
Ni2358     Ni  0.57215021  0.17970884  0.16387118     1.27400
Ni2359     Ni  0.58163337  0.12213510  0.11199381     1.26100
H2360       H  0.63968109  0.12521702  0.10881218     0.40700
C2361       C  0.74612730  0.43448770  0.26316651     0.25200
C2362       C  0.73172003  0.40961863  0.28520542    -0.22900
C2363       C  0.71317957  0.38244219  0.27262832     0.20100
C2364       C  0.70948804  0.38011388  0.23883143     0.25200
C2365       C  0.72394001  0.40516168  0.21707338    -0.22800
C2366       C  0.74190638  0.43246616  0.22975708     0.20100
F2367       F  0.75396860  0.45825167  0.20963343    -0.12800
F2368       F  0.76285601  0.46196576  0.27416399    -0.15100
F2369       F  0.69133750  0.35381778  0.22738539    -0.15100
F2370       F  0.69820975  0.35856059  0.29304953    -0.12800
C2371       C  0.75289603  0.15461778  0.24932372     0.25200
C2372       C  0.75112022  0.13209341  0.27692175    -0.22900
C2373       C  0.74370796  0.09777067  0.27206706     0.20100
C2374       C  0.73676941  0.08664365  0.24118639     0.25200
C2375       C  0.73711519  0.10931881  0.21404703    -0.22800
C2376       C  0.74549608  0.14333307  0.21838880     0.20100
F2377       F  0.74605143  0.16567904  0.19261351    -0.12800
F2378       F  0.76197948  0.18758290  0.25200438    -0.15100
F2379       F  0.73023849  0.05331546  0.23766303    -0.15100
F2380       F  0.74236024  0.07469013  0.29727120    -0.12800
C2381       C  0.89420658  0.26590861  0.28116227     0.25200
C2382       C  0.87706179  0.23748125  0.26940638    -0.22900
C2383       C  0.84991026  0.24160392  0.25002449     0.20100
C2384       C  0.83888910  0.27310679  0.24446045     0.25200
C2385       C  0.85515557  0.30139999  0.25747342    -0.22800
C2386       C  0.88362070  0.29769828  0.27468626     0.20100
F2387       F  0.90038415  0.32472151  0.28640260    -0.12800
F2388       F  0.92083822  0.26285788  0.29946495    -0.15100
F2389       F  0.81079241  0.27551815  0.22836373    -0.15100
F2390       F  0.83384550  0.21527869  0.23622111    -0.12800
C2391       C  0.58219335  0.22095990  0.27668281     0.25200
C2392       C  0.61504486  0.21584700  0.27483104    -0.22900
C2393       C  0.63776585  0.24399486  0.27444654     0.20100
C2394       C  0.62764336  0.27651610  0.27575075     0.25200
C2395       C  0.59476031  0.28154236  0.27712249    -0.22800
C2396       C  0.57211066  0.25355557  0.27773810     0.20100
F2397       F  0.54017059  0.25797308  0.27952388    -0.12800
F2398       F  0.55999342  0.19433205  0.27739542    -0.15100
F2399       F  0.64982515  0.30315403  0.27516009    -0.15100
F2400       F  0.66977235  0.23991798  0.27234502    -0.12800
C2401       C  0.68763637  0.23376592  0.08714834     0.25200
C2402       C  0.67982901  0.26107382  0.10532848    -0.22900
C2403       C  0.70105201  0.29057073  0.10203879     0.20100
C2404       C  0.73205332  0.28932302  0.08886841     0.25200
C2405       C  0.74236565  0.25892711  0.07879160    -0.22800
C2406       C  0.71896526  0.23212755  0.07513631     0.20100
F2407       F  0.72706175  0.20286488  0.06327750    -0.12800
F2408       F  0.66629053  0.20676608  0.08459231    -0.15100
F2409       F  0.75241984  0.31743906  0.08741261    -0.15100
F2410       F  0.69319309  0.31983185  0.11406019    -0.12800
C2411       C  0.72741137  0.25958230  0.37836510     0.25200
C2412       C  0.70908181  0.24124248  0.40309268    -0.22900
C2413       C  0.72499841  0.21785321  0.42274804     0.20100
C2414       C  0.75864450  0.21794466  0.42186350     0.25200
C2415       C  0.77717858  0.24137008  0.40156585    -0.22800
C2416       C  0.76114363  0.25932536  0.37748379     0.20100
F2417       F  0.77836453  0.27910971  0.35502360    -0.12800
F2418       F  0.71299882  0.27990221  0.35668621    -0.15100
F2419       F  0.77324993  0.19842433  0.44415765    -0.15100
F2420       F  0.70875642  0.19741972  0.44546154    -0.12800
C2421       C  0.95471736  0.08992213  0.02108704     0.25200
C2422       C  0.96206266  0.11214570  0.99398343    -0.22900
C2423       C  0.97425422  0.14508710  0.99946123     0.20100
C2424       C  0.97914959  0.15553212  0.03084632     0.25200
C2425       C  0.97213849  0.13339965  0.05794146    -0.22800
C2426       C  0.95981763  0.10047131  0.05270057     0.20100
F2427       F  0.95244250  0.07865353  0.07828015    -0.12800
F2428       F  0.94212704  0.05816482  0.01709523    -0.15100
F2429       F  0.48955660  0.18802834  0.03476099    -0.15100
F2430       F  0.48228291  0.16733558  0.47432710    -0.12800
C2431       C  0.46266579  0.31420887  0.04030748     0.25200
C2432       C  0.98139163  0.34011502  0.05431284    -0.22900
C2433       C  0.99883035  0.36403916  0.03342426     0.20100
C2434       C  0.99867508  0.36092163  0.49948239     0.25200
C2435       C  0.98020340  0.33453525  0.48549929    -0.22800
C2436       C  0.46175990  0.31157086  0.50659378     0.20100
F2437       F  0.44440959  0.28491815  0.49478817    -0.12800
F2438       F  0.44653068  0.29007525  0.05964403    -0.15100
F2439       F  0.01695308  0.38341223  0.48026588    -0.15100
F2440       F  0.01618315  0.39032445  0.04585644    -0.12800
C2441       C  0.98688874  0.98680931  0.39080020     0.25200
C2442       C  0.50424144  0.50409969  0.36507628    -0.22900
C2443       C  0.98749875  0.52507059  0.34365729     0.20100
C2444       C  0.95380880  0.52454768  0.34508797     0.25200
C2445       C  0.93594962  0.50338452  0.36799144    -0.22800
C2446       C  0.95315125  0.98707115  0.39261934     0.20100
F2447       F  0.93669944  0.96875017  0.41668500    -0.12800
F2448       F  0.00201464  0.96753172  0.41284320    -0.15100
F2449       F  0.93840689  0.54116488  0.32117331    -0.15100
F2450       F  0.50294487  0.54322336  0.31884477    -0.12800
C2451       C  0.96948807  0.45315760  0.17923227     0.25200
C2452       C  0.95877825  0.48290951  0.19044384    -0.22900
C2453       C  0.98205946  0.00929094  0.19587992     0.20100
C2454       C  0.51382902  0.00818588  0.18454443     0.25200
C2455       C  0.52217502  0.48196332  0.16552344    -0.22800
C2456       C  0.50089007  0.45248768  0.16689754     0.20100
F2457       F  0.50908116  0.42388944  0.15377523    -0.12800
F2458       F  0.94925743  0.42506136  0.17885678    -0.15100
F2459       F  0.53497075  0.03504999  0.18865492    -0.15100
F2460       F  0.97371695  0.03776393  0.20915957    -0.12800
C2461       C  0.87288957  0.47425436  0.52156747     0.25200
C2462       C  0.85914543  0.44546922  0.00717426    -0.22900
C2463       C  0.83329923  0.44827529  0.98599444     0.20100
C2464       C  0.82125329  0.47934467  0.97919634     0.25200
C2465       C  0.83574565  0.00836349  0.99344710    -0.22800
C2466       C  0.86070550  0.50502794  0.51519311     0.20100
F2467       F  0.87436327  0.03167107  0.53096923    -0.12800
F2468       F  0.89926489  0.47308939  0.54058511    -0.15100
F2469       F  0.79610349  0.48138924  0.95870257    -0.15100
F2470       F  0.82059155  0.42098556  0.97107922    -0.12800
C2471       C  0.57568038  0.00425591  0.49061944     0.25200
C2472       C  0.59809381  0.03070727  0.99931312    -0.22900
C2473       C  0.62954377  0.02310338  0.00711847     0.20100
C2474       C  0.63843678  0.49052580  0.00635355     0.25200
C2475       C  0.61640878  0.46448469  0.99675807    -0.22800
C2476       C  0.58492111  0.47169916  0.48924607     0.20100
F2477       F  0.56282051  0.44670041  0.48179882    -0.12800
F2478       F  0.54463293  0.01009846  0.48421238    -0.15100
F2479       F  0.66898460  0.48392311  0.01421595    -0.15100
F2480       F  0.65138653  0.04756030  0.01635426    -0.12800
N2481       N  0.62629261  0.43084006  0.99539580    -0.01800
C2482       C  0.63934478  0.41345860  0.52024850     0.00800
C2483       C  0.65434904  0.38663221  0.50902076    -0.22100
C2484       C  0.65043617  0.38743010  0.97611931    -0.22300
C2485       C  0.63256893  0.41426905  0.96846313     0.00700
H2486       H  0.66466005  0.36697915  0.52349826     0.14400
H2487       H  0.65813286  0.36919379  0.95987609     0.14500
N2488       N  0.83733208  0.06923092  0.49809580    -0.01800
C2489       C  0.82074504  0.04029953  0.49035541     0.00800
C2490       C  0.78846245  0.04061858  0.49827691    -0.22100
C2491       C  0.78577155  0.06844804  0.51541915    -0.22300
C2492       C  0.81650795  0.08379835  0.51747733     0.00700
H2493       H  0.77042866  0.01968952  0.49820496     0.14400
H2494       H  0.76520877  0.07269019  0.53046141     0.14500
N2495       N  0.90627354  0.48700191  0.66269344    -0.01800
C2496       C  0.92383640  0.48871648  0.69033124     0.00800
C2497       C  0.91050775  0.00970774  0.71103640    -0.22100
C2498       C  0.88703781  0.02491329  0.69410890    -0.22300
C2499       C  0.88753767  0.01371868  0.66285411     0.00700
H2500       H  0.92016685  0.01739388  0.73394937     0.14400
H2501       H  0.87635274  0.04711113  0.70162137     0.14500
N2502       N  0.53675078  0.99506402  0.85704081    -0.01800
C2503       C  0.55702949  0.01405559  0.83627593     0.00800
C2504       C  0.56890740  0.99447224  0.81315872    -0.22100
C2505       C  0.55783605  0.46204014  0.82191877    -0.22300
C2506       C  0.54094766  0.46270564  0.85090615     0.00700
H2507       H  0.58758785  0.00197148  0.79534303     0.14400
H2508       H  0.56799060  0.44034865  0.81251067     0.14500
N2509       N  0.98658437  0.33848223  0.58911272    -0.01800
C2510       C  0.96525612  0.34237255  0.61355919     0.00800
C2511       C  0.97371197  0.32591254  0.64180492    -0.22100
C2512       C  0.00115047  0.31116806  0.63504554    -0.22300
C2513       C  0.50944233  0.32051730  0.60314196     0.00700
H2514       H  0.96040924  0.32349269  0.66450609     0.14400
H2515       H  0.51434340  0.29659530  0.65223424     0.14500
N2516       N  0.96107022  0.12175200  0.93346318    -0.01800
C2517       C  0.98194482  0.10843904  0.91213184     0.00800
C2518       C  0.48322040  0.07462984  0.92097139    -0.22100
C2519       C  0.97182224  0.07007366  0.95215226    -0.22300
C2520       C  0.96131905  0.10049256  0.96016459     0.00700
H2521       H  0.49950287  0.05805889  0.91069270     0.14400
H2522       H  0.47679792  0.04932795  0.96865477     0.14500
N2523       N  0.87581513  0.41557469  0.50827825    -0.01800
C2524       C  0.89569470  0.41202808  0.98306184     0.00800
C2525       C  0.92576855  0.40492074  0.99432109    -0.22100
C2526       C  0.92303140  0.40066759  0.52732478    -0.22300
C2527       C  0.89162487  0.40592446  0.53496073     0.00700
H2528       H  0.94536457  0.39699432  0.97994834     0.14400
H2529       H  0.94054185  0.39065756  0.54342601     0.14500
N2530       N  0.58810427  0.06434477  0.50200936    -0.01800
C2531       C  0.57407809  0.07189991  0.53012260     0.00800
C2532       C  0.54404762  0.08339675  0.52508352    -0.22100
C2533       C  0.54065199  0.08657600  0.99269036    -0.22300
C2534       C  0.56843935  0.07677502  0.97914272     0.00700
H2535       H  0.52917081  0.09430137  0.54270254     0.14400
H2536       H  0.52367427  0.10175740  0.98073095     0.14500
N2537       N  0.90402596  0.49010285  0.85951244    -0.01800
C2538       C  0.90162912  0.46361220  0.84003021     0.00800
C2539       C  0.87877683  0.46810758  0.81635106    -0.22100
C2540       C  0.86427524  0.99625372  0.82332977    -0.22300
C2541       C  0.87965451  0.00904229  0.84991440     0.00700
H2542       H  0.87183308  0.45167147  0.79722796     0.14400
H2543       H  0.84411312  0.00597046  0.81054859     0.14500
N2544       N  0.54603372  0.48863532  0.63932131    -0.01800
C2545       C  0.54518164  0.01887853  0.62281094     0.00800
C2546       C  0.53708071  0.01403266  0.59097285    -0.22100
C2547       C  0.53888968  0.48053263  0.58628775    -0.22300
C2548       C  0.54721637  0.46604800  0.61565419     0.00700
H2549       H  0.53659153  0.03319471  0.57187550     0.14400
H2550       H  0.54091912  0.46986991  0.56287372     0.14500
N2551       N  0.98322808  0.32845831  0.95108332    -0.01800
C2552       C  0.95741281  0.31639794  0.93406026     0.00800
C2553       C  0.96263141  0.28720696  0.91960071    -0.22100
C2554       C  0.99388821  0.28194643  0.92519666    -0.22300
C2555       C  0.50681670  0.30935739  0.94147875     0.00700
H2556       H  0.94625016  0.27299695  0.90431961     0.14400
H2557       H  0.50702833  0.26405645  0.91275863     0.14500
N2558       N  0.97154616  0.14632623  0.58988062    -0.01800
C2559       C  0.99449490  0.16976696  0.59969052     0.00800
C2560       C  0.97998782  0.19646860  0.61196151    -0.22100
C2561       C  0.94753119  0.18797457  0.61241230    -0.22300
C2562       C  0.94298140  0.15637892  0.60037611     0.00700
H2563       H  0.49173100  0.21736229  0.62407819     0.14400
H2564       H  0.92988205  0.20074162  0.62549799     0.14500
N2565       N  0.67756148  0.25143057  0.91234315    -0.01800
C2566       C  0.67417229  0.28413047  0.91820749     0.00800
C2567       C  0.65757949  0.28571681  0.94724542    -0.22100
C2568       C  0.64605369  0.25369752  0.95651400    -0.22300
C2569       C  0.65740543  0.23330308  0.93384964     0.00700
H2570       H  0.64812740  0.30786876  0.95642568     0.14400
H2571       H  0.62759751  0.24690629  0.97473808     0.14500
N2572       N  0.65693873  0.25550810  0.63254441    -0.01800
C2573       C  0.65838137  0.22583059  0.64992719     0.00800
C2574       C  0.66795905  0.23191231  0.68112747    -0.22100
C2575       C  0.66664784  0.26552601  0.68484481    -0.22300
C2576       C  0.65701766  0.27897557  0.65552591     0.00700
H2577       H  0.66947742  0.21354635  0.70075595     0.14400
H2578       H  0.66590191  0.27712990  0.70790046     0.14500
N2579       N  0.62550212  0.18249524  0.77225389    -0.01800
C2580       C  0.63695616  0.17381652  0.74348175     0.00800
C2581       C  0.66704869  0.16200067  0.74635703    -0.22100
C2582       C  0.67335154  0.16053953  0.77837075    -0.22300
C2583       C  0.64680239  0.17103501  0.79386956     0.00700
H2584       H  0.67989291  0.14977013  0.72805802     0.14400
H2585       H  0.69070790  0.14504026  0.78924922     0.14500
O2586       O  0.60162192  0.05470098  0.83138444    -0.79300
O2587       O  0.65187376  0.18419788  0.90479075    -0.63900
O2588       O  0.62259012  0.09684342  0.88054731    -1.10500
C2589       C  0.51625306  0.12383554  0.90503639     1.07600
O2590       O  0.61277156  0.19278654  0.93991468    -0.77100
O2591       O  0.58990858  0.12740182  0.95499772    -0.64700
Ni2592     Ni  0.64079841  0.08170632  0.84150850     1.34900
C2593       C  0.57998597  0.09712474  0.95082992     0.86400
O2594       O  0.68351491  0.13154537  0.89183276    -0.77700
O2595       O  0.68399489  0.10455112  0.84619568    -0.88000
C2596       C  0.63999321  0.20115431  0.92616994     0.85900
O2597       O  0.62671250  0.11940578  0.81711175    -0.66200
O2598       O  0.53116098  0.14053657  0.92668455    -0.85500
C2599       C  0.63633208  0.14966606  0.82185851     0.86800
C2600       C  0.69880813  0.12190410  0.86738273     1.08300
H2601       H  0.58851810  0.16527102  0.87421607     0.40100
O2602       O  0.59253071  0.14935426  0.89174951    -1.08100
O2603       O  0.57229797  0.08649601  0.92339481    -0.64800
Ni2604     Ni  0.57712135  0.10549281  0.87994167     1.26300
O2605       O  0.64323919  0.16009026  0.84947016    -0.65000
O2606       O  0.53167264  0.11472118  0.88046451    -0.77300
C2607       C  0.57457595  0.04577353  0.84526761     0.86200
O2608       O  0.56316187  0.06180414  0.86766561    -0.64500
Ni2609     Ni  0.57416466  0.16443401  0.93075491     1.27400
Ni2610     Ni  0.63803268  0.14064318  0.89253594     1.26100
H2611       H  0.62663440  0.08088069  0.89803682     0.40700
N2612       N  0.87118747  0.17586600  0.76769041    -0.01800
C2613       C  0.88983648  0.20428600  0.77326603     0.00800
C2614       C  0.92154324  0.20129087  0.76440596    -0.22100
C2615       C  0.92162543  0.17255683  0.74829358    -0.22300
C2616       C  0.88999636  0.15947299  0.74770799     0.00700
H2617       H  0.94088219  0.22094895  0.76292208     0.14400
H2618       H  0.94111067  0.16623749  0.73277943     0.14500
N2619       N  0.75307224  0.12363095  0.83781660    -0.01800
C2620       C  0.73289698  0.13723065  0.85953360     0.00800
C2621       C  0.73159733  0.17091780  0.85040569    -0.22100
C2622       C  0.74209155  0.17497426  0.81885639    -0.22300
C2623       C  0.75210722  0.14430962  0.81075425     0.00700
H2624       H  0.71560671  0.18766630  0.86079542     0.14400
H2625       H  0.73682713  0.19578446  0.80265751     0.14500
O2626       O  0.84190581  0.04995684  0.85495679    -0.79300
O2627       O  0.83265958  0.19489427  0.88094483    -0.63900
O2628       O  0.86678754  0.11343421  0.85757831    -1.10500
C2629       C  0.85456594  0.08922854  0.97219051     1.07600
O2630       O  0.87247070  0.19660180  0.91510958    -0.77100
O2631       O  0.91298197  0.14932277  0.94042937    -0.64700
Ni2632     Ni  0.84581420  0.08787892  0.82508216     1.34900
C2633       C  0.92739081  0.12758139  0.92534230     0.86400
O2634       O  0.85311782  0.17179899  0.82249164    -0.77700
O2635       O  0.85169546  0.12513772  0.79379613    -0.88000
C2636       C  0.84662081  0.20838046  0.90465249     0.85900
O2637       O  0.80072269  0.09588019  0.83120980    -0.66200
O2638       O  0.85928185  0.12086956  0.97534856    -0.85500
C2639       C  0.78688730  0.11854370  0.84531804     0.86800
C2640       C  0.85671880  0.15692234  0.79579386     1.08300
H2641       H  0.82554984  0.12818656  0.91738363     0.40100
O2642       O  0.84777120  0.13370652  0.91100849    -1.08100
O2643       O  0.91166251  0.10735803  0.90723911    -0.64800
Ni2644     Ni  0.86593039  0.09339349  0.90126535     1.26300
O2645       O  0.80310583  0.14015976  0.86157015    -0.65000
O2646       O  0.86099440  0.07515818  0.94572029    -0.77300
C2647       C  0.86767991  0.03821001  0.86540863     0.86200
O2648       O  0.88252254  0.05269505  0.88795875    -0.64500
Ni2649     Ni  0.86756376  0.15845250  0.94466770     1.27400
Ni2650     Ni  0.84884293  0.15396548  0.86731271     1.26100
H2651       H  0.88892716  0.11867645  0.85076682     0.40700
N2652       N  0.58391433  0.31483800  0.77767188    -0.01800
C2653       C  0.56821336  0.33049212  0.75340443     0.00800
C2654       C  0.55374531  0.35756648  0.76496061    -0.22100
C2655       C  0.56063738  0.35862346  0.79724336    -0.22300
C2656       C  0.57945441  0.33245257  0.80429919     0.00700
H2657       H  0.54214891  0.37650809  0.75072054     0.14400
H2658       H  0.55416423  0.37756037  0.81334302     0.14500
O2659       O  0.55759370  0.30213971  0.92097738    -0.79300
O2660       O  0.67176950  0.39095657  0.84714788    -0.63900
O2661       O  0.60790167  0.34800870  0.90570224    -1.10500
C2662       C  0.55305724  0.44037765  0.87667839     1.07600
O2663       O  0.66122482  0.44442587  0.85343910    -0.77100
O2664       O  0.63541772  0.43354916  0.91388425    -0.64700
Ni2665     Ni  0.59772817  0.30142396  0.89905363     1.34900
C2666       C  0.61817040  0.41862662  0.93643105     0.86400
O2667       O  0.67104694  0.33769306  0.89067150    -0.77700
O2668       O  0.63771363  0.29669831  0.87779160    -0.88000
C2669       C  0.67906308  0.42237796  0.84365828     0.85900
O2670       O  0.57916467  0.31344115  0.85884679    -0.66200
O2671       O  0.57797975  0.45093126  0.89124526    -0.85500
C2672       C  0.59529862  0.32853819  0.83557331     0.86800
C2673       C  0.66282069  0.30659308  0.89220480     1.08300
H2674       H  0.60147009  0.39777855  0.84277621     0.40100
O2675       O  0.60826428  0.39943362  0.86515667    -1.08100
O2676       O  0.59017565  0.40407686  0.93134655    -0.64800
Ni2677     Ni  0.57569694  0.37822179  0.89410472     1.26300
O2678       O  0.62359195  0.34309083  0.83927600    -0.65000
O2679       O  0.54484627  0.40918308  0.87867321    -0.77300
C2680       C  0.53830022  0.32357993  0.92885930     0.86200
O2681       O  0.54314546  0.35505524  0.92214542    -0.64500
Ni2682     Ni  0.61930712  0.44570400  0.87250730     1.27400
Ni2683     Ni  0.63996374  0.36872864  0.87602497     1.26100
H2684       H  0.61469210  0.35024628  0.92771785     0.40700
N2685       N  0.80824839  0.25463653  0.91270473    -0.01800
C2686       C  0.80839763  0.27882395  0.93486758     0.00800
C2687       C  0.82903339  0.27158182  0.95998024    -0.22100
C2688       C  0.84493093  0.24482224  0.95152014    -0.22300
C2689       C  0.83246383  0.23516447  0.92237380     0.00700
H2690       H  0.83513434  0.28681693  0.98027936     0.14400
H2691       H  0.86450476  0.23436325  0.96466352     0.14500
N2692       N  0.73301538  0.41458785  0.81972586    -0.01800
C2693       C  0.76139899  0.42456969  0.83369554     0.00800
C2694       C  0.75880288  0.45207874  0.85185099    -0.24900
C2695       C  0.72740224  0.45897125  0.85064371    -0.22300
C2696       C  0.71173044  0.43447908  0.83277115     0.00700
H2697       H  0.77694286  0.46332440  0.86741277     0.14400
H2698       H  0.71638248  0.47601355  0.86612512     0.14500
N2699       N  0.83816363  0.33070692  0.76088627    -0.01800
C2700       C  0.82027021  0.33165902  0.78820155     0.00800
C2701       C  0.78975152  0.34095051  0.78094196    -0.22100
C2702       C  0.78968658  0.34821906  0.74825881    -0.22300
C2703       C  0.81990515  0.34259737  0.73685620     0.00700
H2704       H  0.77137887  0.34686771  0.79794067     0.14400
H2705       H  0.77065791  0.35904815  0.73485080     0.14500
O2706       O  0.90336782  0.40732088  0.82905078    -0.79300
O2707       O  0.79384131  0.32490673  0.89982779    -0.63900
O2708       O  0.85392053  0.39826337  0.86995613    -1.10500
C2709       C  0.92744090  0.33194277  0.92903109     1.07600
O2710       O  0.81610913  0.33571345  0.94452778    -0.77100
O2711       O  0.87237916  0.36296621  0.96528682    -0.64700
Ni2712     Ni  0.85830990  0.40702082  0.82441852     1.34900
C2713       C  0.88323974  0.39229203  0.95688667     0.86400
O2714       O  0.78860478  0.38690462  0.86677004    -0.77700
O2715       O  0.81199131  0.40780745  0.81934678    -0.88000
C2716       C  0.80115906  0.31442230  0.92786643     0.85900
O2717       O  0.86000159  0.36170806  0.81558197    -0.66200
O2718       O  0.90259515  0.31503796  0.94085464    -0.85500
C2719       C  0.83516367  0.34225712  0.81814229     0.86800
C2720       C  0.78831077  0.40388124  0.83954879     1.08300
H2721       H  0.86601283  0.32430603  0.88537935     0.40100
O2722       O  0.86135776  0.34219567  0.89912146    -1.08100
O2723       O  0.88548837  0.40355399  0.92781514    -0.64800
Ni2724     Ni  0.89151029  0.37991797  0.88935839     1.26300
O2725       O  0.81947603  0.33862257  0.84436515    -0.65000
O2726       O  0.92709305  0.35862669  0.91024974    -0.77300
C2727       C  0.91329257  0.42985195  0.84733497     0.86200
O2728       O  0.91908295  0.41984979  0.87606360    -0.64500
Ni2729     Ni  0.85915480  0.32499167  0.94280465     1.27400
Ni2730     Ni  0.82300023  0.36247098  0.88364140     1.26100
H2731       H  0.84909253  0.41853778  0.88013338     0.40700
N2732       N  0.73424031  0.09681022  0.68193572    -0.01800
C2733       C  0.71004466  0.07364297  0.67439302     0.00800
C2734       C  0.72266497  0.04716588  0.65969815    -0.22100
C2735       C  0.75492542  0.05551623  0.65551027    -0.22300
C2736       C  0.76129765  0.08669065  0.66799831     0.00700
H2737       H  0.70929757  0.02672251  0.64838444     0.14400
H2738       H  0.77081216  0.04288070  0.64016605     0.14500
O2739       O  0.80584717  0.11959907  0.55784445    -0.79300
O2740       O  0.85736543  0.15541364  0.69983947    -0.63900
O2741       O  0.84368774  0.14025058  0.60877577    -1.10500
C2742       C  0.88897617  0.04108481  0.63672084     1.07600
O2743       O  0.89710096  0.12114501  0.70904895    -0.77100
O2744       O  0.91844690  0.13126841  0.64708275    -0.64700
Ni2745     Ni  0.80154967  0.14771623  0.59319985     1.34900
C2746       C  0.91849864  0.13240061  0.61630829     0.86400
O2747       O  0.83948575  0.19552961  0.64623503    -0.77700
O2748       O  0.79422487  0.17777705  0.62621842    -0.88000
C2749       C  0.87941393  0.14363396  0.71768827     0.85900
O2750       O  0.78532125  0.11092265  0.62051333    -0.66200
O2751       O  0.90971654  0.06507770  0.63964068    -0.85500
C2752       C  0.78545428  0.11058585  0.65128359     0.86800
C2753       C  0.81515574  0.20176431  0.62902860     1.08300
H2754       H  0.84405455  0.08796614  0.66988105     0.40100
O2755       O  0.85991201  0.10212638  0.65739296    -1.08100
O2756       O  0.89935156  0.11292197  0.60007369    -0.64800
Ni2757     Ni  0.85501808  0.09449343  0.61181049     1.26300
O2758       O  0.80472261  0.13056372  0.66684731    -0.65000
O2759       O  0.86487584  0.04722403  0.61923801    -0.77300
C2760       C  0.82507750  0.09880459  0.54846338     0.86200
O2761       O  0.84779100  0.08806535  0.56601768    -0.64500
Ni2762     Ni  0.90182314  0.09396153  0.67331029     1.27400
Ni2763     Ni  0.84910059  0.14821771  0.65420458     1.26100
H2764       H  0.85925389  0.15451081  0.59601620     0.40700
N2765       N  0.71704794  0.40584714  0.68267316    -0.01800
C2766       C  0.73705983  0.40000981  0.65778174     0.00800
C2767       C  0.72884435  0.41689308  0.62968738    -0.22100
C2768       C  0.70273475  0.43368609  0.63717437    -0.22300
C2769       C  0.69485624  0.42500941  0.66925686     0.00700
H2770       H  0.74135705  0.41803532  0.60657101     0.14400
H2771       H  0.68986863  0.44872943  0.62009674     0.14500
N2772       N  0.79584353  0.25564254  0.60483270    -0.01800
C2773       C  0.77726378  0.25306353  0.57797197     0.00800
C2774       C  0.79035377  0.23243300  0.55652094    -0.22100
C2775       C  0.81553986  0.21888245  0.57222555    -0.22300
C2776       C  0.81588726  0.23002224  0.60356725     0.00700
H2777       H  0.77987553  0.22409079  0.53417625     0.14400
H2778       H  0.82673870  0.19713202  0.56428692     0.14500
O2779       O  0.83098552  0.30076931  0.58581392    -0.79300
O2780       O  0.89927474  0.43290895  0.64192460    -0.63900
O2781       O  0.86288593  0.34297587  0.62985521    -1.10500
C2782       C  0.76734622  0.38466171  0.65999171     1.07600
O2783       O  0.86297193  0.44917065  0.67642123    -0.77100
O2784       O  0.84622510  0.38456772  0.70235183    -0.64700
Ni2785     Ni  0.87259212  0.32478840  0.58901307     1.34900
C2786       C  0.83182479  0.35537963  0.70485045     0.86400
O2787       O  0.92349231  0.37219217  0.63351757    -0.77700
O2788       O  0.91617587  0.34409134  0.58828214    -0.88000
C2789       C  0.88865946  0.45480497  0.65967577     0.85900
O2790       O  0.85960978  0.36279271  0.56371154    -0.66200
O2791       O  0.78555920  0.39255039  0.68282650    -0.85500
C2792       C  0.87601422  0.39080012  0.56461803     0.86800
C2793       C  0.93363102  0.35473960  0.61102706     1.08300
H2794       H  0.83191902  0.41280907  0.61944661     0.40100
O2795       O  0.83744026  0.39885809  0.63799081    -1.08100
O2796       O  0.81947475  0.34133131  0.68043959    -0.64800
Ni2797     Ni  0.81943472  0.35327898  0.63434798     1.26300
O2798       O  0.88587745  0.40224472  0.59097506    -0.65000
O2799       O  0.77659924  0.36716726  0.63732490    -0.77300
C2800       C  0.81128377  0.28895258  0.60799292     0.86200
O2801       O  0.80350777  0.30697773  0.63082646    -0.64500
Ni2802     Ni  0.82579835  0.41841597  0.67768731     1.27400
Ni2803     Ni  0.88140120  0.38760366  0.63582047     1.26100
H2804       H  0.86890389  0.32795172  0.64738688     0.40700
O2805       O  0.56292748  0.30688322  0.60778654    -0.79300
O2806       O  0.65119508  0.39151966  0.68964735    -0.63900
O2807       O  0.57671570  0.35580706  0.64690713    -1.10500
C2808       C  0.62838246  0.41316630  0.55392285     1.07600
O2809       O  0.64112752  0.43822248  0.66516800    -0.77100
O2810       O  0.60082929  0.45421664  0.61993052    -0.64700
Ni2811     Ni  0.56299089  0.30926279  0.65336684     1.34900
C2812       C  0.57247805  0.44210780  0.61534557     0.86400
O2813       O  0.59854231  0.35459245  0.71005496    -0.77700
O2814       O  0.56278310  0.31119402  0.70012539    -0.88000
C2815       C  0.66113848  0.42058213  0.67918990     0.85900
O2816       O  0.60339619  0.29086582  0.65247382    -0.66200
O2817       O  0.64223712  0.43366829  0.57306403    -0.85500
C2818       C  0.63186822  0.30295112  0.65640782     0.86800
C2819       C  0.57762686  0.33111342  0.71919399     1.08300
H2820       H  0.64554064  0.37723737  0.61884344     0.40100
O2821       O  0.62774634  0.38937272  0.62583884    -1.08100
O2822       O  0.56574745  0.41167163  0.60857300    -0.64800
Ni2823     Ni  0.59072660  0.37285013  0.60379154     1.26300
O2824       O  0.63885006  0.33334881  0.66318920    -0.65000
O2825       O  0.60708875  0.38982051  0.56261247    -0.77300
C2826       C  0.54323160  0.32466307  0.59346837     0.86200
O2827       O  0.55361292  0.35346245  0.58276874    -0.64500
Ni2828     Ni  0.64133955  0.43589088  0.61964472     1.27400
Ni2829     Ni  0.61401371  0.37208902  0.66881957     1.26100
H2830       H  0.55903828  0.36814003  0.65383693     0.40700
O2831       O  0.65828795  0.05987780  0.65325578    -0.79300
O2832       O  0.53888689  0.13499668  0.60335319    -0.63900
O2833       O  0.62435715  0.11022307  0.62116332    -1.10500
C2834       C  0.61651526  0.16233213  0.71724783     1.07600
O2835       O  0.54244619  0.18308518  0.62821674    -0.77100
O2836       O  0.60719803  0.19935419  0.63730244    -0.64700
Ni2837     Ni  0.63325274  0.06439512  0.61422614     1.34900
C2838       C  0.63615963  0.19547739  0.64511129     0.86400
O2839       O  0.58534781  0.11110489  0.56854180    -0.77700
O2840       O  0.60956428  0.06299210  0.57387668    -0.88000
C2841       C  0.52743701  0.16222250  0.61031366     0.85900
O2842       O  0.59636818  0.04346258  0.63706161    -0.66200
O2843       O  0.59943613  0.18263215  0.70179560    -0.85500
C2844       C  0.56775196  0.04848961  0.62911330     0.86800
C2845       C  0.59179082  0.08282581  0.55858402     1.08300
H2846       H  0.56523758  0.11858811  0.66852777     0.40100
O2847       O  0.58048286  0.13373234  0.65625476    -1.08100
O2848       O  0.64489505  0.16693930  0.65520985    -0.64800
Ni2849     Ni  0.62353914  0.12220022  0.66504889     1.26300
O2850       O  0.55957416  0.07767808  0.62064183    -0.65000
O2851       O  0.62019227  0.13302011  0.70847787    -0.77300
C2852       C  0.67642703  0.08166693  0.66714827     0.86200
O2853       O  0.66674838  0.11006794  0.67270414    -0.64500
Ni2854     Ni  0.57212346  0.17967901  0.66388389     1.27400
Ni2855     Ni  0.58164217  0.12212613  0.61197940     1.26100
H2856       H  0.63968875  0.12520153  0.60882168     0.40700
C2857       C  0.74603697  0.43450991  0.76311581     0.25200
C2858       C  0.73170293  0.40960071  0.78515658    -0.22900
C2859       C  0.71321814  0.38238284  0.77258316     0.20100
C2860       C  0.70952678  0.38004659  0.73878559     0.25200
C2861       C  0.72393055  0.40512199  0.71702618    -0.22800
C2862       C  0.74182147  0.43247514  0.72970829     0.20100
F2863       F  0.75380257  0.45829706  0.70958433    -0.12800
F2864       F  0.76268076  0.46203894  0.77411180    -0.15100
F2865       F  0.69141443  0.35372299  0.72734023    -0.15100
F2866       F  0.69829619  0.35847338  0.79300829    -0.12800
C2867       C  0.75293898  0.15460204  0.74930966     0.25200
C2868       C  0.75111870  0.13208141  0.77690935    -0.22900
C2869       C  0.74365845  0.09776593  0.77205776     0.20100
C2870       C  0.73671585  0.08664493  0.74117483     0.25200
C2871       C  0.73711215  0.10931930  0.71403070    -0.22800
C2872       C  0.74554095  0.14332452  0.71837229     0.20100
F2873       F  0.74615471  0.16566821  0.69259229    -0.12800
F2874       F  0.76207110  0.18755606  0.75199229    -0.15100
F2875       F  0.73013564  0.05332285  0.73765421    -0.15100
F2876       F  0.74227069  0.07468944  0.79726646    -0.12800
C2877       C  0.89420928  0.26587868  0.78120404     0.25200
C2878       C  0.87708561  0.23747207  0.76938737    -0.22900
C2879       C  0.84998144  0.24162484  0.74994684     0.20100
C2880       C  0.83897279  0.27313532  0.74439070     0.25200
C2881       C  0.85521034  0.30141090  0.75746605    -0.22800
C2882       C  0.88363724  0.29767788  0.77474192     0.20100
F2883       F  0.90037719  0.32467589  0.78653139    -0.12800
F2884       F  0.92080695  0.26279658  0.79955111    -0.15100
F2885       F  0.81091027  0.27556586  0.72823854    -0.15100
F2886       F  0.83395208  0.21532061  0.73607701    -0.12800
C2887       C  0.58219573  0.22096048  0.77670108     0.25200
C2888       C  0.61504605  0.21585217  0.77481627    -0.22900
C2889       C  0.63776486  0.24400329  0.77440735     0.20100
C2890       C  0.62764005  0.27652371  0.77571889     0.25200
C2891       C  0.59475673  0.28154455  0.77712077    -0.22800
C2892       C  0.57211078  0.25355405  0.77776491     0.20100
F2893       F  0.54017172  0.25796625  0.77958815    -0.12800
F2894       F  0.55999864  0.19432959  0.77743793    -0.15100
F2895       F  0.64981887  0.30316506  0.77511060    -0.15100
F2896       F  0.66977032  0.23992999  0.77227733    -0.12800
C2897       C  0.68761608  0.23378522  0.58715909     0.25200
C2898       C  0.67981167  0.26108394  0.60535260    -0.22900
C2899       C  0.70104120  0.29057790  0.60208034     0.20100
C2900       C  0.73204252  0.28933290  0.58890851     0.25200
C2901       C  0.74235007  0.25894433  0.57880842    -0.22800
C2902       C  0.71894342  0.23215158  0.57513842     0.20100
F2903       F  0.72702943  0.20290021  0.56324731    -0.12800
F2904       F  0.66626574  0.20679074  0.58459117    -0.15100
F2905       F  0.75241184  0.31744642  0.58746643    -0.15100
F2906       F  0.69318707  0.31983412  0.61411589    -0.12800
C2907       C  0.72743815  0.25960968  0.87833985     0.25200
C2908       C  0.70911519  0.24126430  0.90306921    -0.22900
C2909       C  0.72503792  0.21786860  0.92271205     0.20100
C2910       C  0.75868415  0.21795510  0.92181086     0.25200
C2911       C  0.77721205  0.24138822  0.90151601    -0.22800
C2912       C  0.76116981  0.25934926  0.87744420     0.20100
F2913       F  0.77838445  0.27913799  0.85498236    -0.12800
F2914       F  0.71302083  0.27993912  0.85667374    -0.15100
F2915       F  0.77329819  0.19842150  0.94408731    -0.15100
F2916       F  0.70880343  0.19743117  0.94542749    -0.12800
C2917       C  0.95473462  0.08990000  0.52104112     0.25200
C2918       C  0.96206342  0.11212566  0.49393654    -0.22900
C2919       C  0.97423079  0.14507610  0.49940906     0.20100
C2920       C  0.97912611  0.15552613  0.53079134     0.25200
C2921       C  0.97213680  0.13339047  0.55788869    -0.22800
C2922       C  0.95982807  0.10045682  0.55265251     0.20100
F2923       F  0.95245225  0.07864318  0.57823484    -0.12800
F2924       F  0.94216483  0.05813452  0.51705248    -0.15100
F2925       F  0.48949655  0.18803584  0.53469456    -0.15100
F2926       F  0.48234689  0.16733655  0.97438763    -0.12800
C2927       C  0.46264297  0.31422878  0.54031278     0.25200
C2928       C  0.98140831  0.34010659  0.55430708    -0.22900
C2929       C  0.99886210  0.36401755  0.53341771     0.20100
C2930       C  0.99865063  0.36094235  0.99948841     0.25200
C2931       C  0.98020295  0.33454005  0.98550416    -0.22800
C2932       C  0.46178877  0.31155040  0.00658758     0.20100
F2933       F  0.44447101  0.28487791  0.99477965    -0.12800
F2934       F  0.44648025  0.29011434  0.55964929    -0.15100
F2935       F  0.01691215  0.38344784  0.98027195    -0.15100
F2936       F  0.01623549  0.39029020  0.54584811    -0.12800
C2937       C  0.98687079  0.98682210  0.89078665     0.25200
C2938       C  0.50426206  0.50412469  0.86506931    -0.22900
C2939       C  0.98752546  0.52511656  0.84368807     0.20100
C2940       C  0.95383602  0.52460562  0.84512293     0.25200
C2941       C  0.93597194  0.50342064  0.86800565    -0.22800
C2942       C  0.95313373  0.98708593  0.89259574     0.20100
F2943       F  0.93667288  0.96875882  0.91665142    -0.12800
F2944       F  0.00198654  0.96753178  0.91282659    -0.15100
F2945       F  0.93843877  0.54125759  0.82122819    -0.15100
F2946       F  0.50296840  0.54323625  0.81882861    -0.12800
C2947       C  0.96952653  0.45313504  0.67921017     0.25200
C2948       C  0.95881181  0.48288465  0.69042349    -0.22900
C2949       C  0.98209381  0.00927190  0.69589467     0.20100
C2950       C  0.51386055  0.00817026  0.68451294     0.25200
C2951       C  0.52218222  0.48196899  0.66549911    -0.22800
C2952       C  0.50091364  0.45248230  0.66689029     0.20100
F2953       F  0.50912377  0.42388061  0.65378809    -0.12800
F2954       F  0.94930182  0.42503445  0.67883348    -0.15100
F2955       F  0.53499947  0.03504036  0.68860605    -0.15100
F2956       F  0.97376515  0.03773380  0.70920539    -0.12800
C2957       C  0.87292162  0.47427190  0.02151779     0.25200
C2958       C  0.85915232  0.44546417  0.50717175    -0.22900
C2959       C  0.83332872  0.44828333  0.48596379     0.20100
C2960       C  0.82126800  0.47935031  0.47919015     0.25200
C2961       C  0.83571088  0.00832172  0.49343348    -0.22800
C2962       C  0.86074229  0.50504524  0.01513436     0.20100
F2963       F  0.87440858  0.03169886  0.03097925    -0.12800
F2964       F  0.89932937  0.47311538  0.04049087    -0.15100
F2965       F  0.79612707  0.48140291  0.45868634    -0.15100
F2966       F  0.82065655  0.42101058  0.47099858    -0.12800
C2967       C  0.57564770  0.00426040  0.99077965     0.25200
C2968       C  0.59808275  0.03067665  0.49931108    -0.22900
C2969       C  0.62947775  0.02303364  0.50730250     0.20100
C2970       C  0.63843562  0.49053815  0.50634626     0.25200
C2971       C  0.61640319  0.46448800  0.49677854    -0.22800
C2972       C  0.58493535  0.47170600  0.98920025     0.20100
F2973       F  0.56283705  0.44671545  0.98172721    -0.12800
F2974       F  0.54456025  0.01007969  0.98454871    -0.15100
F2975       F  0.66899212  0.48394485  0.51418323    -0.15100
F2976       F  0.65127196  0.04745551  0.51670231    -0.12800
N2977       N  0.62602681  0.93037315  0.49524486    -0.01800
C2978       C  0.63925204  0.91323041  0.02010138     0.00800
C2979       C  0.65413179  0.88628108  0.00896247    -0.22100
C2980       C  0.64997387  0.88678321  0.47610133    -0.22300
C2981       C  0.63208560  0.91358872  0.46838810     0.00700
H2982       H  0.66450504  0.86671560  0.02350473     0.14400
H2983       H  0.65761240  0.86846571  0.45992285     0.14500
N2984       N  0.83674837  0.56899307  0.99784749    -0.01800
C2985       C  0.82017028  0.54003474  0.99013463     0.00800
C2986       C  0.78789838  0.54033318  0.99814076    -0.22100
C2987       C  0.78525521  0.56807153  0.01541988    -0.22300
C2988       C  0.81599102  0.58342977  0.01741504     0.00700
H2989       H  0.76987767  0.51938808  0.99812552     0.14400
H2990       H  0.76474862  0.57222200  0.03057810     0.14500
N2991       N  0.90629522  0.98702863  0.16233447    -0.01800
C2992       C  0.92381201  0.98870952  0.19000288     0.00800
C2993       C  0.91053374  0.50986485  0.21128223    -0.22100
C2994       C  0.88707105  0.52505256  0.19431795    -0.22300
C2995       C  0.88745094  0.51367742  0.16312391     0.00700
H2996       H  0.92023221  0.51763237  0.23415329     0.14400
H2997       H  0.87641570  0.54729064  0.20176394     0.14500
N2998       N  0.53656586  0.49510694  0.35714261    -0.01800
C2999       C  0.55678539  0.51403907  0.33628482     0.00800
C3000       C  0.56874981  0.49436389  0.31329691    -0.22100
C3001       C  0.55790152  0.96207759  0.32161394    -0.22300
C3002       C  0.54102738  0.96264091  0.35062263     0.00700
H3003       H  0.58742964  0.50182071  0.29546884     0.14400
H3004       H  0.56798664  0.94040852  0.31208428     0.14500
N3005       N  0.98660036  0.83842218  0.08871925    -0.01800
C3006       C  0.96543524  0.84250254  0.11326625     0.00800
C3007       C  0.97398374  0.82609141  0.14150048    -0.22100
C3008       C  0.00123879  0.81110761  0.13460666    -0.22300
C3009       C  0.50946211  0.82044013  0.10271707     0.00700
H3010       H  0.96075994  0.82371235  0.16424815     0.14400
H3011       H  0.51434957  0.79659941  0.15185211     0.14500
N3012       N  0.96057139  0.62185698  0.43322221    -0.01800
C3013       C  0.98146377  0.60862880  0.41183801     0.00800
C3014       C  0.48276764  0.57478944  0.42064251    -0.22100
C3015       C  0.97144165  0.57019040  0.45180472    -0.22300
C3016       C  0.96092695  0.60058059  0.45989553     0.00700
H3017       H  0.49904953  0.55825608  0.41030792     0.14400
H3018       H  0.47642964  0.54937865  0.46828039     0.14500
N3019       N  0.87586621  0.91552102  0.00823079    -0.01800
C3020       C  0.89570917  0.91179889  0.48303364     0.00800
C3021       C  0.92580018  0.90472721  0.49424649    -0.22100
C3022       C  0.92308486  0.90054682  0.02725412    -0.22300
C3023       C  0.89169932  0.90585750  0.03490972     0.00700
H3024       H  0.94534982  0.89672455  0.47986194     0.14400
H3025       H  0.94056577  0.89048226  0.04335385     0.14500
N3026       N  0.58777673  0.56464197  0.00189547    -0.01800
C3027       C  0.57366784  0.57225065  0.02994720     0.00800
C3028       C  0.54363365  0.58368687  0.02481339    -0.22100
C3029       C  0.54026235  0.58672129  0.49240271    -0.22300
C3030       C  0.56807813  0.57689539  0.47892695     0.00700
H3031       H  0.52870123  0.59460813  0.04236856     0.14400
H3032       H  0.52326317  0.60181102  0.48035907     0.14500
N3033       N  0.90419688  0.99003581  0.35969410    -0.01800
C3034       C  0.90165317  0.96353885  0.34023032     0.00800
C3035       C  0.87877423  0.96808206  0.31659541    -0.22100
C3036       C  0.86412386  0.49609550  0.32311403    -0.22300
C3037       C  0.87941211  0.50895546  0.34971460     0.00700
H3038       H  0.87169841  0.95161233  0.29754061     0.14400
H3039       H  0.84396433  0.50574264  0.31027306     0.14500
N3040       N  0.54609312  0.98859045  0.13924092    -0.01800
C3041       C  0.54509050  0.51886251  0.12287273     0.00800
C3042       C  0.53703986  0.51391393  0.09104121    -0.22100
C3043       C  0.53891865  0.98068445  0.08618146    -0.22300
C3044       C  0.54722843  0.96608105  0.11549825     0.00700
H3045       H  0.53661074  0.53301688  0.07186676     0.14400
H3046       H  0.54090626  0.97010299  0.06272515     0.14500
N3047       N  0.98317701  0.82822346  0.45074660    -0.01800
C3048       C  0.95733702  0.81620153  0.43374132     0.00800
C3049       C  0.96249929  0.78698058  0.41930675    -0.22100
C3050       C  0.99373717  0.78164838  0.42492200    -0.22300
C3051       C  0.50671539  0.80899743  0.44116715     0.00700
H3052       H  0.94607891  0.77276407  0.40406947     0.14400
H3053       H  0.50684663  0.76359545  0.41258671     0.14500
N3054       N  0.97106406  0.64624116  0.08975107    -0.01800
C3055       C  0.99394881  0.66969393  0.09965453     0.00800
C3056       C  0.97936255  0.69636243  0.11189112    -0.22100
C3057       C  0.94691236  0.68781840  0.11223525    -0.22300
C3058       C  0.94245341  0.65621672  0.10019146     0.00700
H3059       H  0.49109467  0.71727951  0.12405122     0.14400
H3060       H  0.92920620  0.70053467  0.12529446     0.14500
N3061       N  0.67734137  0.75128135  0.41197202    -0.01800
C3062       C  0.67380821  0.78397655  0.41766879     0.00800
C3063       C  0.65722448  0.78568299  0.44669022    -0.22100
C3064       C  0.64587343  0.75367950  0.45617237    -0.22300
C3065       C  0.65725442  0.73321099  0.43359494     0.00700
H3066       H  0.64766433  0.80783421  0.45573499     0.14400
H3067       H  0.62742535  0.74692934  0.47441482     0.14500
N3068       N  0.65669730  0.75541617  0.13234022    -0.01800
C3069       C  0.65803369  0.72575095  0.14975738     0.00800
C3070       C  0.66761375  0.73183117  0.18095535    -0.22100
C3071       C  0.66633229  0.76544008  0.18465929    -0.22300
C3072       C  0.65674328  0.77887250  0.15532161     0.00700
H3073       H  0.66905082  0.71347506  0.20059937     0.14400
H3074       H  0.66552713  0.77703891  0.20771523     0.14500
N3075       N  0.62492723  0.68248861  0.27213786    -0.01800
C3076       C  0.63644383  0.67388337  0.24338077     0.00800
C3077       C  0.66663041  0.66229224  0.24622027    -0.22100
C3078       C  0.67295022  0.66087941  0.27822614    -0.22300
C3079       C  0.64630552  0.67115802  0.29373139     0.00700
H3080       H  0.67956810  0.65018001  0.22790390     0.14400
H3081       H  0.69041394  0.64550279  0.28908614     0.14500
O3082       O  0.60128573  0.55473426  0.33127296    -0.79300
O3083       O  0.65150058  0.68420685  0.40451515    -0.63900
O3084       O  0.62212732  0.59693204  0.38035868    -1.10500
C3085       C  0.51582044  0.62402048  0.40483294     1.07600
O3086       O  0.61249033  0.69282432  0.43972084    -0.77100
O3087       O  0.58964431  0.62744156  0.45471680    -0.64700
Ni3088     Ni  0.64044045  0.58173809  0.34138827     1.34900
C3089       C  0.57961358  0.59719617  0.45057339     0.86400
O3090       O  0.68306750  0.63157569  0.39169346    -0.77700
O3091       O  0.68363442  0.60458595  0.34607679    -0.88000
C3092       C  0.63971284  0.70114203  0.42594234     0.85900
O3093       O  0.62644569  0.61939888  0.31687225    -0.66200
O3094       O  0.53077197  0.64063150  0.42653014    -0.85500
C3095       C  0.63594253  0.64968442  0.32166587     0.86800
C3096       C  0.69840412  0.62196788  0.36726465     1.08300
H3097       H  0.58811499  0.66543131  0.37402995     0.40100
O3098       O  0.59211615  0.64948260  0.39153926    -1.08100
O3099       O  0.57178192  0.58662119  0.42315220    -0.64800
Ni3100     Ni  0.57666666  0.60565306  0.37970406     1.26300
O3101       O  0.64279184  0.66011271  0.34928242    -0.65000
O3102       O  0.53122635  0.61496558  0.38021979    -0.77300
C3103       C  0.57421530  0.54585594  0.34512106     0.86200
O3104       O  0.56269428  0.56199268  0.36738669    -0.64500
Ni3105     Ni  0.57382381  0.66451035  0.43059107     1.27400
Ni3106     Ni  0.63759874  0.64069749  0.39233578     1.26100
H3107       H  0.62612711  0.58098039  0.39787199     0.40700
N3108       N  0.87077307  0.67582409  0.26732598    -0.01800
C3109       C  0.88934344  0.70433191  0.27275357     0.00800
C3110       C  0.92102883  0.70149648  0.26372364    -0.22100
C3111       C  0.92121335  0.67263065  0.24785724    -0.22300
C3112       C  0.88963990  0.65935716  0.24746588     0.00700
H3113       H  0.94028502  0.72123632  0.26208011     0.14400
H3114       H  0.94069130  0.66630169  0.23233759     0.14500
N3115       N  0.75268456  0.62384614  0.33771465    -0.01800
C3116       C  0.73247354  0.63737603  0.35944352     0.00800
C3117       C  0.73109408  0.67106180  0.35033865    -0.22100
C3118       C  0.74163050  0.67519009  0.31880567    -0.22300
C3119       C  0.75173291  0.64456814  0.31068953     0.00700
H3120       H  0.71503164  0.68774347  0.36071731     0.14400
H3121       H  0.73635387  0.69600550  0.30261779     0.14500
O3122       O  0.84158997  0.54986065  0.35455695    -0.79300
O3123       O  0.83255176  0.69507851  0.38058215    -0.63900
O3124       O  0.86636125  0.61341987  0.35725775    -1.10500
C3125       C  0.85379680  0.58908689  0.47190642     1.07600
O3126       O  0.87220164  0.69647717  0.41491210    -0.77100
O3127       O  0.91230573  0.64905151  0.44050806    -0.64700
Ni3128     Ni  0.84528672  0.58790891  0.32478436     1.34900
C3129       C  0.92683236  0.62756060  0.42519424     0.86400
O3130       O  0.85302202  0.67189849  0.32220899    -0.77700
O3131       O  0.85096819  0.62523136  0.29350182    -0.88000
C3132       C  0.84648334  0.70844861  0.40436292     0.85900
O3133       O  0.80021565  0.59583820  0.33127473    -0.66200
O3134       O  0.85825597  0.62075083  0.47505718    -0.85500
C3135       C  0.78649746  0.61872481  0.34517089     0.86800
C3136       C  0.85629928  0.65699031  0.29548678     1.08300
H3137       H  0.82501929  0.62818603  0.41690664     0.40100
O3138       O  0.84727331  0.63370190  0.41065214    -1.08100
O3139       O  0.91118802  0.60747139  0.40689641    -0.64800
Ni3140     Ni  0.86546261  0.59338385  0.40095243     1.26300
O3141       O  0.80283121  0.64052064  0.36110155    -0.65000
O3142       O  0.86045744  0.57508951  0.44544788    -0.77300
C3143       C  0.86738001  0.53818652  0.36508009     0.86200
O3144       O  0.88213876  0.55271657  0.38765790    -0.64500
Ni3145     Ni  0.86690383  0.65834482  0.44445011     1.27400
Ni3146     Ni  0.84857730  0.65404908  0.36698596     1.26100
H3147       H  0.88850581  0.61857309  0.35042582     0.40700
N3148       N  0.58298765  0.81465538  0.27730017    -0.01800
C3149       C  0.56743954  0.83038732  0.25298369     0.00800
C3150       C  0.55325256  0.85766307  0.26448991    -0.22100
C3151       C  0.56024701  0.85878138  0.29676091    -0.22300
C3152       C  0.57882360  0.83242437  0.30387411     0.00700
H3153       H  0.54185534  0.87671642  0.25020355     0.14400
H3154       H  0.55402472  0.87787759  0.31279236     0.14500
O3155       O  0.55744698  0.80176516  0.42059343    -0.79300
O3156       O  0.67145071  0.89057455  0.34650227    -0.63900
O3157       O  0.60768905  0.84766048  0.40518984    -1.10500
C3158       C  0.55302961  0.94015192  0.37632276     1.07600
O3159       O  0.66128265  0.94400011  0.35350529    -0.77100
O3160       O  0.63521662  0.93294049  0.41382985    -0.64700
Ni3161     Ni  0.59747915  0.80108703  0.39850141     1.34900
C3162       C  0.61783782  0.91803602  0.43628502     0.86400
O3163       O  0.67080499  0.83735706  0.38992291    -0.77700
O3164       O  0.63740197  0.79641172  0.37712350    -0.88000
C3165       C  0.67895565  0.92196966  0.34338562     0.85900
O3166       O  0.57875199  0.81321809  0.35838845    -0.66200
O3167       O  0.57791754  0.95060091  0.39101005    -0.85500
C3168       C  0.59478018  0.82841895  0.33509727     0.86800
C3169       C  0.66252066  0.80629141  0.39153399     1.08300
H3170       H  0.60130855  0.89769767  0.34238928     0.40100
O3171       O  0.60809749  0.89919135  0.36478464    -1.08100
O3172       O  0.58984338  0.90358421  0.43103815    -0.64800
Ni3173     Ni  0.57549428  0.87790656  0.39363716     1.26300
O3174       O  0.62312737  0.84288066  0.33871640    -0.65000
O3175       O  0.54472036  0.90896931  0.37822810    -0.77300
C3176       C  0.53813585  0.82320557  0.42841615     0.86200
O3177       O  0.54289838  0.85466224  0.42156028    -0.64500
Ni3178     Ni  0.61930077  0.94534705  0.37242202     1.27400
Ni3179     Ni  0.63971454  0.86839505  0.37545791     1.26100
H3180       H  0.61451438  0.84988111  0.42719436     0.40700
N3181       N  0.80817280  0.75476306  0.41256205    -0.01800
C3182       C  0.80829874  0.77878800  0.43488837     0.00800
C3183       C  0.82890537  0.77138815  0.45997569    -0.22100
C3184       C  0.84482353  0.74470788  0.45135118    -0.22300
C3185       C  0.83239214  0.73524237  0.42212912     0.00700
H3186       H  0.83497564  0.78648454  0.48037895     0.14400
H3187       H  0.86436301  0.73414718  0.46446508     0.14500
N3188       N  0.73292166  0.91404787  0.31950924    -0.01800
C3189       C  0.76131935  0.92422416  0.33336583     0.00800
C3190       C  0.75872124  0.95191846  0.35125807    -0.24900
C3191       C  0.72730216  0.95871243  0.35007678    -0.22300
C3192       C  0.71163589  0.93399942  0.33246918     0.00700
H3193       H  0.77687849  0.96334978  0.36668566     0.14400
H3194       H  0.71629346  0.97589068  0.36541658     0.14500
N3195       N  0.83806315  0.83104462  0.26116441    -0.01800
C3196       C  0.82014503  0.83212336  0.28842942     0.00800
C3197       C  0.78976669  0.84177596  0.28114874    -0.22100
C3198       C  0.78983598  0.84911902  0.24847861    -0.22300
C3199       C  0.81997024  0.84315525  0.23710856     0.00700
H3200       H  0.77138781  0.84769947  0.29812946     0.14400
H3201       H  0.77093346  0.86009321  0.23503336     0.14500
O3202       O  0.90334464  0.90722553  0.32924197    -0.79300
O3203       O  0.79361923  0.82499525  0.40012643    -0.63900
O3204       O  0.85377270  0.89820823  0.37003881    -1.10500
C3205       C  0.92731883  0.83169691  0.42887867     1.07600
O3206       O  0.81614973  0.83560658  0.44476571    -0.77100
O3207       O  0.87269372  0.86255528  0.46534096    -0.64700
Ni3208     Ni  0.85827065  0.90666641  0.32448975     1.34900
C3209       C  0.88320188  0.89200307  0.45695167     0.86400
O3210       O  0.78847795  0.88691502  0.36690296    -0.77700
O3211       O  0.81192418  0.90726954  0.31931728    -0.88000
C3212       C  0.80106959  0.81441020  0.42809091     0.85900
O3213       O  0.86014124  0.86117236  0.31638449    -0.66200
O3214       O  0.90249915  0.81459427  0.44050783    -0.85500
C3215       C  0.83507370  0.84204500  0.31856442     0.86800
C3216       C  0.78821909  0.90359619  0.33951262     1.08300
H3217       H  0.86581540  0.82428405  0.38535462     0.40100
O3218       O  0.86118025  0.84210889  0.39918338    -1.08100
O3219       O  0.88501293  0.90338904  0.42791585    -0.64800
Ni3220     Ni  0.89131285  0.87984852  0.38949574     1.26300
O3221       O  0.81915365  0.83852189  0.34463101    -0.65000
O3222       O  0.92691004  0.85859909  0.41042020    -0.77300
C3223       C  0.91320930  0.92976209  0.34756125     0.86200
O3224       O  0.91887900  0.91978840  0.37632240    -0.64500
Ni3225     Ni  0.85913257  0.82471187  0.44278707     1.27400
Ni3226     Ni  0.82282123  0.86245655  0.38382809     1.26100
H3227       H  0.84896318  0.91854838  0.38010811     0.40700
N3228       N  0.73394239  0.59688928  0.18196116    -0.01800
C3229       C  0.70968449  0.57370850  0.17459199     0.00800
C3230       C  0.72224845  0.54703926  0.16015111    -0.22100
C3231       C  0.75450103  0.55531519  0.15582357    -0.22300
C3232       C  0.76093381  0.58659146  0.16806013     0.00700
H3233       H  0.70883554  0.52650799  0.14901515     0.14400
H3234       H  0.77033473  0.54251835  0.14056490     0.14500
O3235       O  0.80546109  0.61920227  0.05782102    -0.79300
O3236       O  0.85704018  0.65510548  0.19967701    -0.63900
O3237       O  0.84334876  0.63985274  0.10868053    -1.10500
C3238       C  0.88876801  0.54084361  0.13679453     1.07600
O3239       O  0.89681595  0.62091076  0.20894429    -0.77100
O3240       O  0.91803184  0.63107833  0.14693182    -0.64700
Ni3241     Ni  0.80122254  0.64737343  0.09313345     1.34900
C3242       C  0.91806170  0.63216512  0.11615736     0.86400
O3243       O  0.83927069  0.69517233  0.14612845    -0.77700
O3244       O  0.79396652  0.67754050  0.12610062    -0.88000
C3245       C  0.87908847  0.64338263  0.21753824     0.85900
O3246       O  0.78495969  0.61061787  0.12049361    -0.66200
O3247       O  0.90946685  0.56489584  0.13953792    -0.85500
C3248       C  0.78513340  0.61033752  0.15125833     0.86800
C3249       C  0.81495200  0.70148338  0.12895365     1.08300
H3250       H  0.84377031  0.58764571  0.16986078     0.40100
O3251       O  0.85960808  0.60178841  0.15733111    -1.08100
O3252       O  0.89898440  0.61257210  0.09996109    -0.64800
Ni3253     Ni  0.85467853  0.59408715  0.11176491     1.26300
O3254       O  0.80444512  0.63030712  0.16676709    -0.65000
O3255       O  0.86462202  0.54683353  0.11930630    -0.77300
C3256       C  0.82464835  0.59837714  0.04842071     0.86200
O3257       O  0.84735997  0.58758780  0.06596670    -0.64500
Ni3258     Ni  0.90156640  0.59374506  0.17320457     1.27400
Ni3259     Ni  0.84881186  0.64786883  0.15408725     1.26100
H3260       H  0.85890536  0.65409996  0.09589597     0.40700
N3261       N  0.71690107  0.90526037  0.18247341    -0.01800
C3262       C  0.73701237  0.89947188  0.15765990     0.00800
C3263       C  0.72877003  0.91618865  0.12948549    -0.22100
C3264       C  0.70255039  0.93285701  0.13684714    -0.22300
C3265       C  0.69467351  0.92430135  0.16895295     0.00700
H3266       H  0.74135527  0.91734151  0.10640749     0.14400
H3267       H  0.68971264  0.94783541  0.11969923     0.14500
N3268       N  0.79576553  0.75548309  0.10490512    -0.01800
C3269       C  0.77722720  0.75300123  0.07800892     0.00800
C3270       C  0.79032610  0.73242671  0.05650961    -0.22100
C3271       C  0.81545723  0.71878304  0.07221612    -0.22300
C3272       C  0.81576623  0.72983106  0.10358808     0.00700
H3273       H  0.77986055  0.72415437  0.03413438     0.14400
H3274       H  0.82661401  0.69701867  0.06424734     0.14500
O3275       O  0.83057065  0.80091396  0.08583611    -0.79300
O3276       O  0.89931477  0.93283374  0.14169016    -0.63900
O3277       O  0.86297581  0.84277638  0.12992143    -1.10500
C3278       C  0.76739872  0.88436428  0.15999850     1.07600
O3279       O  0.86296308  0.94923452  0.17605010    -0.77100
O3280       O  0.84633339  0.88479765  0.20231099    -0.64700
Ni3281     Ni  0.87241796  0.82444530  0.08907332     1.34900
C3282       C  0.83196746  0.85560962  0.20502659     0.86400
O3283       O  0.92357231  0.87212636  0.13324534    -0.77700
O3284       O  0.91614279  0.84329749  0.08838739    -0.88000
C3285       C  0.88867263  0.95481360  0.15933931     0.85900
O3286       O  0.85984464  0.86249168  0.06353674    -0.66200
O3287       O  0.78560286  0.89257167  0.18274725    -0.85500
C3288       C  0.87614652  0.89054816  0.06451684     0.86800
C3289       C  0.93367971  0.85452819  0.11083922     1.08300
H3290       H  0.83189240  0.91244922  0.11930271     0.40100
O3291       O  0.83747409  0.89863174  0.13791788    -1.08100
O3292       O  0.81968390  0.84131571  0.18071097    -0.64800
Ni3293     Ni  0.81953742  0.85297452  0.13454228     1.26300
O3294       O  0.88588980  0.90201778  0.09088861    -0.65000
O3295       O  0.77669596  0.86672542  0.13748462    -0.77300
C3296       C  0.81120569  0.78878548  0.10817735     0.86200
O3297       O  0.80369347  0.80660170  0.13126169    -0.64500
Ni3298     Ni  0.82582855  0.91844392  0.17746983     1.27400
Ni3299     Ni  0.88146632  0.88745550  0.13571454     1.26100
H3300       H  0.86907721  0.82780678  0.14746011     0.40700
O3301       O  0.56292196  0.80680343  0.10732357    -0.79300
O3302       O  0.65088277  0.89116364  0.18958977    -0.63900
O3303       O  0.57644132  0.85568717  0.14658283    -1.10500
C3304       C  0.62828812  0.91301872  0.05376793     1.07600
O3305       O  0.64105600  0.93790946  0.16507436    -0.77100
O3306       O  0.60073175  0.95403940  0.11998088    -0.64700
Ni3307     Ni  0.56274512  0.80912080  0.15291326     1.34900
C3308       C  0.57239802  0.94203541  0.11516896     0.86400
O3309       O  0.59804808  0.85435956  0.20977833    -0.77700
O3310       O  0.56228287  0.81101366  0.19968180    -0.88000
C3311       C  0.66099167  0.92014215  0.17904650     0.85900
O3312       O  0.60312460  0.79069463  0.15217485    -0.66200
O3313       O  0.64204091  0.93358997  0.07291742    -0.85500
C3314       C  0.63157298  0.80279265  0.15617664     0.86800
C3315       C  0.57702508  0.83094318  0.21881542     1.08300
H3316       H  0.64535647  0.87704808  0.11872091     0.40100
O3317       O  0.62755935  0.88919787  0.12568479    -1.08100
O3318       O  0.56564622  0.91164872  0.10820003    -0.64800
Ni3319     Ni  0.59058672  0.87273980  0.10353086     1.26300
O3320       O  0.63851782  0.83316775  0.16300759    -0.65000
O3321       O  0.60705650  0.88963332  0.06243714    -0.77300
C3322       C  0.54322067  0.82455536  0.09298710     0.86200
O3323       O  0.55357029  0.85338398  0.08235761    -0.64500
Ni3324     Ni  0.64120644  0.93569741  0.11954160     1.27400
Ni3325     Ni  0.61369517  0.87188684  0.16862011     1.26100
H3326       H  0.55874331  0.86801482  0.15346862     0.40700
O3327       O  0.65818350  0.56009446  0.15284994    -0.79300
O3328       O  0.53830432  0.63490084  0.10352064    -0.63900
O3329       O  0.62391602  0.61039901  0.12107222    -1.10500
C3330       C  0.61604536  0.66232324  0.21718699     1.07600
O3331       O  0.54191100  0.68306657  0.12822447    -0.77100
O3332       O  0.60668690  0.69943965  0.13736709    -0.64700
Ni3333     Ni  0.63296309  0.56466877  0.11395887     1.34900
C3334       C  0.63567872  0.69549150  0.14504720     0.86400
O3335       O  0.58472134  0.61128186  0.06855577    -0.77700
O3336       O  0.60913343  0.56328933  0.07370088    -0.88000
C3337       C  0.52688433  0.66216902  0.11036988     0.85900
O3338       O  0.59624296  0.54359484  0.13692231    -0.66200
O3339       O  0.59888761  0.68257551  0.20178343    -0.85500
C3340       C  0.56757313  0.54852644  0.12910959     0.86800
C3341       C  0.59127490  0.58309193  0.05849157     1.08300
H3342       H  0.56482008  0.61855296  0.16856715     0.40100
O3343       O  0.58003011  0.63372150  0.15627934    -1.08100
O3344       O  0.64440285  0.66695914  0.15513908    -0.64800
Ni3345     Ni  0.62312248  0.62224192  0.16498977     1.26300
O3346       O  0.55924737  0.57766931  0.12069911    -0.65000
O3347       O  0.61980971  0.63302972  0.20841734    -0.77300
C3348       C  0.67614394  0.58181988  0.16702268     0.86200
O3349       O  0.66637518  0.61017303  0.17262571    -0.64500
Ni3350     Ni  0.57159541  0.67964843  0.16389782     1.27400
Ni3351     Ni  0.58112546  0.62218338  0.11201500     1.26100
H3352       H  0.63917536  0.62546541  0.10873657     0.40700
C3353       C  0.74565892  0.93412910  0.26289821     0.25200
C3354       C  0.73158733  0.90906546  0.28493603    -0.22900
C3355       C  0.71336052  0.88166334  0.27235736     0.20100
C3356       C  0.70959008  0.87937445  0.23855834     0.25200
C3357       C  0.72372699  0.90462016  0.21682568    -0.22800
C3358       C  0.74143764  0.93208527  0.22950168     0.20100
F3359       F  0.75329549  0.95796170  0.20937736    -0.12800
F3360       F  0.76208646  0.96178428  0.27389271    -0.15100
F3361       F  0.69174212  0.85289002  0.22707058    -0.15100
F3362       F  0.69884634  0.85748054  0.29276752    -0.12800
C3363       C  0.75267082  0.65485149  0.24923604     0.25200
C3364       C  0.75089635  0.63235741  0.27685186    -0.22900
C3365       C  0.74365907  0.59800686  0.27202814     0.20100
C3366       C  0.73676501  0.58682148  0.24117504     0.25200
C3367       C  0.73697672  0.60946087  0.21402037    -0.22800
C3368       C  0.74536878  0.64349418  0.21830168     0.20100
F3369       F  0.74607449  0.66577612  0.19246882    -0.12800
F3370       F  0.76163974  0.68784542  0.25190613    -0.15100
F3371       F  0.73041433  0.55346389  0.23769587    -0.15100
F3372       F  0.74240037  0.57494285  0.29724334    -0.12800
C3373       C  0.89378945  0.76581496  0.28104286     0.25200
C3374       C  0.87642511  0.73746663  0.26938702    -0.22900
C3375       C  0.84894571  0.74168867  0.25051317     0.20100
C3376       C  0.83799872  0.77326266  0.24516749     0.25200
C3377       C  0.85472452  0.80151480  0.25778122    -0.22800
C3378       C  0.88332520  0.79766573  0.27469433     0.20100
F3379       F  0.90035801  0.82461518  0.28624104    -0.12800
F3380       F  0.92056860  0.76262842  0.29909091    -0.15100
F3381       F  0.80959781  0.77583819  0.22965571    -0.15100
F3382       F  0.83254389  0.71541711  0.23694969    -0.12800
C3383       C  0.58143996  0.72083385  0.27604830     0.25200
C3384       C  0.61433635  0.71579340  0.27464317    -0.22900
C3385       C  0.63698863  0.74398495  0.27449510     0.20100
C3386       C  0.62677434  0.77645953  0.27571774     0.25200
C3387       C  0.59387381  0.78140219  0.27675061    -0.22800
C3388       C  0.57127047  0.75339584  0.27704559     0.20100
F3389       F  0.53930061  0.75776247  0.27847819    -0.12800
F3390       F  0.55928466  0.69418281  0.27634286    -0.15100
F3391       F  0.64888846  0.80314868  0.27533827    -0.15100
F3392       F  0.66902538  0.74000491  0.27263730    -0.12800
C3393       C  0.68759060  0.73365229  0.08712398     0.25200
C3394       C  0.67971453  0.76096251  0.10526317    -0.22900
C3395       C  0.70094414  0.79046526  0.10204111     0.20100
C3396       C  0.73198402  0.78923362  0.08895522     0.25200
C3397       C  0.74231563  0.75886096  0.07884147    -0.22800
C3398       C  0.71893977  0.73204642  0.07515444     0.20100
F3399       F  0.72708497  0.70278953  0.06332031    -0.12800
F3400       F  0.66627762  0.70662640  0.08455699    -0.15100
F3401       F  0.75237008  0.81733692  0.08763136    -0.15100
F3402       F  0.69303988  0.81972282  0.11403678    -0.12800
C3403       C  0.72734410  0.75968633  0.37811200     0.25200
C3404       C  0.70898434  0.74125483  0.40278132    -0.22900
C3405       C  0.72493429  0.71791492  0.42245628     0.20100
C3406       C  0.75859189  0.71814503  0.42168379     0.25200
C3407       C  0.77712134  0.74155736  0.40137640    -0.22800
C3408       C  0.76108790  0.75950049  0.37728176     0.20100
F3409       F  0.77830435  0.77932953  0.35485118    -0.12800
F3410       F  0.71294901  0.78000622  0.35641921    -0.15100
F3411       F  0.77320374  0.69880352  0.44412278    -0.15100
F3412       F  0.70868866  0.69737497  0.44507877    -0.12800
C3413       C  0.95458104  0.58988225  0.02082621     0.25200
C3414       C  0.96171100  0.61219574  0.99374313    -0.22900
C3415       C  0.97364885  0.64521663  0.99925445     0.20100
C3416       C  0.97848135  0.65565112  0.03065763     0.25200
C3417       C  0.97173419  0.63340494  0.05772346    -0.22800
C3418       C  0.95969000  0.60040124  0.05244607     0.20100
F3419       F  0.95257813  0.57848266  0.07800733    -0.12800
F3420       F  0.94216831  0.55806570  0.01681427    -0.15100
F3421       F  0.48851369  0.68823340  0.03461434    -0.15100
F3422       F  0.48147675  0.66751747  0.47420281    -0.12800
C3423       C  0.46275936  0.81399022  0.03996316     0.25200
C3424       C  0.98134299  0.84000903  0.05392508    -0.22900
C3425       C  0.99873663  0.86394068  0.03300089     0.20100
C3426       C  0.99859111  0.86078533  0.49909678     0.25200
C3427       C  0.98018024  0.83433301  0.48515772    -0.22800
C3428       C  0.46185427  0.81128975  0.50628719     0.20100
F3429       F  0.44468044  0.78449213  0.49453919    -0.12800
F3430       F  0.44676495  0.78980098  0.05934610    -0.15100
F3431       F  0.01687866  0.88324117  0.47985132    -0.15100
F3432       F  0.01608935  0.89024657  0.04539736    -0.12800
C3433       C  0.98655894  0.48678774  0.39081197     0.25200
C3434       C  0.50443805  0.00402861  0.36494846    -0.22900
C3435       C  0.98772817  0.02488091  0.34349492     0.20100
C3436       C  0.95403966  0.02431320  0.34495146     0.25200
C3437       C  0.93622284  0.00328844  0.36799828    -0.22800
C3438       C  0.95282533  0.48708647  0.39259243     0.20100
F3439       F  0.93631565  0.46871875  0.41658874    -0.12800
F3440       F  0.00162385  0.46743018  0.41283259    -0.15100
F3441       F  0.93859278  0.04069944  0.32091690    -0.15100
F3442       F  0.50303570  0.04285222  0.31851334    -0.12800
C3443       C  0.96948470  0.95310487  0.17898899     0.25200
C3444       C  0.95877206  0.98286222  0.19017298    -0.22900
C3445       C  0.98207078  0.50936182  0.19606381     0.20100
C3446       C  0.51375484  0.50837655  0.18458783     0.25200
C3447       C  0.52222419  0.98184118  0.16538692    -0.22800
C3448       C  0.50088964  0.95240064  0.16662026     0.20100
F3449       F  0.50901500  0.92385370  0.15335180    -0.12800
F3450       F  0.94924726  0.92501884  0.17856953    -0.15100
F3451       F  0.53482158  0.53534175  0.18851808    -0.15100
F3452       F  0.97377151  0.53780410  0.20943192    -0.12800
C3453       C  0.87331675  0.97427989  0.52142335     0.25200
C3454       C  0.85945250  0.94559143  0.00701091    -0.22900
C3455       C  0.83377154  0.94865003  0.98564095     0.20100
C3456       C  0.82189186  0.97981477  0.97890572     0.25200
C3457       C  0.83511210  0.50804693  0.99350225    -0.22800
C3458       C  0.86132416  0.00515066  0.51504410     0.20100
F3459       F  0.87357623  0.53160644  0.53114390    -0.12800
F3460       F  0.89964251  0.97295057  0.54048806    -0.15100
F3461       F  0.79690266  0.98211121  0.95824433    -0.15100
F3462       F  0.82105056  0.92151850  0.97049181    -0.12800
C3463       C  0.57569398  0.50452488  0.49048608     0.25200
C3464       C  0.59792491  0.53101810  0.99935028    -0.22900
C3465       C  0.62925419  0.52346406  0.00773584     0.20100
C3466       C  0.63859683  0.99013978  0.00559684     0.25200
C3467       C  0.61631478  0.96411945  0.99646683    -0.22800
C3468       C  0.58476287  0.97137676  0.48930800     0.20100
F3469       F  0.56248507  0.94641935  0.48216725    -0.12800
F3470       F  0.54466927  0.51023856  0.48382387    -0.15100
F3471       F  0.66925226  0.98346580  0.01292987    -0.15100
F3472       F  0.65085839  0.54794449  0.01737915    -0.12800
N3473       N  0.62602901  0.93041090  0.99524422    -0.01800
C3474       C  0.63926208  0.91318232  0.52008742     0.00800
C3475       C  0.65415080  0.88624686  0.50893170    -0.22100
C3476       C  0.64996481  0.88680289  0.97613014    -0.22300
C3477       C  0.63209211  0.91361510  0.96839723     0.00700
H3478       H  0.66453782  0.86668096  0.52346116     0.14400
H3479       H  0.65759890  0.86847253  0.95996385     0.14500
N3480       N  0.83674696  0.56899183  0.49786072    -0.01800
C3481       C  0.82016557  0.54003187  0.49015587     0.00800
C3482       C  0.78789479  0.54033382  0.49816255    -0.22100
C3483       C  0.78525512  0.56807433  0.51543971    -0.22300
C3484       C  0.81599237  0.58343042  0.51743372     0.00700
H3485       H  0.76987352  0.51938895  0.49814919     0.14400
H3486       H  0.76474976  0.57222691  0.53059880     0.14500
N3487       N  0.90632194  0.98703868  0.66235705    -0.01800
C3488       C  0.92384156  0.98871296  0.69002333     0.00800
C3489       C  0.91056826  0.50981873  0.71128558    -0.22100
C3490       C  0.88711018  0.52502547  0.69433186    -0.22300
C3491       C  0.88748726  0.51367320  0.66312930     0.00700
H3492       H  0.92026714  0.51756511  0.73416345     0.14400
H3493       H  0.87645701  0.54725877  0.70179414     0.14500
N3494       N  0.53658717  0.49513314  0.85714059    -0.01800
C3495       C  0.55681501  0.51407268  0.83629632     0.00800
C3496       C  0.56877961  0.49440591  0.81330067    -0.22100
C3497       C  0.55788876  0.96209153  0.82163789    -0.22300
C3498       C  0.54101559  0.96265864  0.85064656     0.00700
H3499       H  0.58746337  0.50186785  0.79547812     0.14400
H3500       H  0.56797225  0.94042070  0.81211005     0.14500
N3501       N  0.98660549  0.83844141  0.58874547    -0.01800
C3502       C  0.96545213  0.84252988  0.61330084     0.00800
C3503       C  0.97400038  0.82610766  0.64152940    -0.22100
C3504       C  0.00124090  0.81110455  0.63462201    -0.22300
C3505       C  0.50946796  0.82043417  0.60273882     0.00700
H3506       H  0.96078096  0.82372741  0.66427961     0.14400
H3507       H  0.51434838  0.79657641  0.65186865     0.14500
N3508       N  0.96059862  0.62186887  0.93323306    -0.01800
C3509       C  0.98149287  0.60865215  0.91184363     0.00800
C3510       C  0.48280826  0.57481624  0.92063329    -0.22100
C3511       C  0.97149000  0.57020575  0.95180604    -0.22300
C3512       C  0.96096657  0.60059030  0.95990382     0.00700
H3513       H  0.49909478  0.55829122  0.91029279     0.14400
H3514       H  0.47649136  0.54939671  0.96826776     0.14500
N3515       N  0.87584826  0.91548960  0.50824847    -0.01800
C3516       C  0.89572556  0.91183689  0.98301335     0.00800
C3517       C  0.92580763  0.90473117  0.99422630    -0.22100
C3518       C  0.92308597  0.90057027  0.52727629    -0.22300
C3519       C  0.89169330  0.90585629  0.53492977     0.00700
H3520       H  0.94535026  0.89671995  0.97983788     0.14400
H3521       H  0.94058091  0.89053832  0.54338076     0.14500
N3522       N  0.58776266  0.56464651  0.50188911    -0.01800
C3523       C  0.57366845  0.57228758  0.52993772     0.00800
C3524       C  0.54363855  0.58373477  0.52480490    -0.22100
C3525       C  0.54027624  0.58671474  0.99241102    -0.22300
C3526       C  0.56809878  0.57690794  0.97893632     0.00700
H3527       H  0.52871501  0.59467558  0.54235511     0.14400
H3528       H  0.52328493  0.60181776  0.98037406     0.14500
N3529       N  0.90418667  0.99006409  0.85966669    -0.01800
C3530       C  0.90162776  0.96357136  0.84019971     0.00800
C3531       C  0.87872754  0.96811730  0.81658622    -0.22100
C3532       C  0.86416770  0.49615109  0.82309296    -0.22300
C3533       C  0.87944264  0.50899682  0.84970662     0.00700
H3534       H  0.87163380  0.95165061  0.79753468     0.14400
H3535       H  0.84401022  0.50580109  0.81025075     0.14500
N3536       N  0.54610152  0.98856820  0.63919172    -0.01800
C3537       C  0.54506869  0.51887372  0.62282967     0.00800
C3538       C  0.53703339  0.51392107  0.59099436    -0.22100
C3539       C  0.53891945  0.98066167  0.58613385    -0.22300
C3540       C  0.54722938  0.96605474  0.61544966     0.00700
H3541       H  0.53660722  0.53302222  0.57181778     0.14400
H3542       H  0.54089881  0.97007915  0.56267717     0.14500
N3543       N  0.98318276  0.82823608  0.95071476    -0.01800
C3544       C  0.95733882  0.81624182  0.93370033     0.00800
C3545       C  0.96249658  0.78704699  0.91921740    -0.22100
C3546       C  0.99373203  0.78169801  0.92482392    -0.22300
C3547       C  0.50670460  0.80901022  0.94111686     0.00700
H3548       H  0.94607433  0.77286058  0.90395788     0.14400
H3549       H  0.50682561  0.76366298  0.91245784     0.14500
N3550       N  0.97105206  0.64623248  0.58974349    -0.01800
C3551       C  0.99394482  0.66969203  0.59962292     0.00800
C3552       C  0.97936587  0.69637004  0.61185107    -0.22100
C3553       C  0.94691666  0.68782310  0.61222650    -0.22300
C3554       C  0.94245029  0.65621482  0.60020091     0.00700
H3555       H  0.49109024  0.71729072  0.62401800     0.14400
H3556       H  0.92921957  0.70054688  0.62529046     0.14500
N3557       N  0.67736372  0.75132364  0.91199936    -0.01800
C3558       C  0.67382532  0.78402094  0.91768483     0.00800
C3559       C  0.65723621  0.78573255  0.94670275    -0.22100
C3560       C  0.64588443  0.75373040  0.95619001    -0.22300
C3561       C  0.65727127  0.73325696  0.93362030     0.00700
H3562       H  0.64767144  0.80788454  0.95573979     0.14400
H3563       H  0.62743159  0.74698430  0.97442855     0.14500
N3564       N  0.65668650  0.75538690  0.63236348    -0.01800
C3565       C  0.65801472  0.72571969  0.64977827     0.00800
C3566       C  0.66758837  0.73179583  0.68097919    -0.22100
C3567       C  0.66630215  0.76540289  0.68468813    -0.22300
C3568       C  0.65672336  0.77883862  0.65534823     0.00700
H3569       H  0.66902223  0.71343767  0.70062109     0.14400
H3570       H  0.66548768  0.77699722  0.70774601     0.14500
N3571       N  0.62492955  0.68248254  0.77215183    -0.01800
C3572       C  0.63641939  0.67385584  0.74339006     0.00800
C3573       C  0.66660106  0.66224917  0.74621613    -0.22100
C3574       C  0.67294579  0.66085505  0.77821728    -0.22300
C3575       C  0.64631770  0.67115336  0.79373542     0.00700
H3576       H  0.67952120  0.65012194  0.72789739     0.14400
H3577       H  0.69041314  0.64548129  0.78907482     0.14500
O3578       O  0.60134081  0.55473695  0.83133187    -0.79300
O3579       O  0.65151091  0.68426625  0.90452325    -0.63900
O3580       O  0.62215544  0.59697500  0.88039326    -1.10500
C3581       C  0.51584864  0.62405747  0.90484269     1.07600
O3582       O  0.61251840  0.69285095  0.93976122    -0.77100
O3583       O  0.58967344  0.62745939  0.95473866    -0.64700
Ni3584     Ni  0.64048239  0.58176056  0.84143900     1.34900
C3585       C  0.57963539  0.59721760  0.95058813     0.86400
O3586       O  0.68309528  0.63164607  0.89171193    -0.77700
O3587       O  0.68366680  0.60462410  0.84611581    -0.88000
C3588       C  0.63973122  0.70118643  0.92596728     0.85900
O3589       O  0.62647917  0.61940279  0.81690468    -0.66200
O3590       O  0.53079868  0.64065355  0.92655243    -0.85500
C3591       C  0.63596339  0.64969553  0.82168267     0.86800
C3592       C  0.69843253  0.62202609  0.86728933     1.08300
H3593       H  0.58813394  0.66547749  0.87406099     0.40100
O3594       O  0.59213895  0.64952408  0.89156511    -1.08100
O3595       O  0.57179358  0.58665606  0.92316456    -0.64800
Ni3596     Ni  0.57669278  0.60569726  0.87972073     1.26300
O3597       O  0.64280199  0.66014682  0.84929380    -0.65000
O3598       O  0.53125654  0.61501940  0.88022395    -0.77300
C3599       C  0.57425008  0.54588353  0.84514775     0.86200
O3600       O  0.56271252  0.56203912  0.86739085    -0.64500
Ni3601     Ni  0.57384982  0.66453614  0.93062451     1.27400
Ni3602     Ni  0.63762145  0.64074974  0.89235627     1.26100
H3603       H  0.62615075  0.58103224  0.89791559     0.40700
N3604       N  0.87079650  0.67582694  0.76734990    -0.01800
C3605       C  0.88936948  0.70433289  0.77277668     0.00800
C3606       C  0.92105473  0.70149119  0.76374985    -0.22100
C3607       C  0.92123450  0.67262369  0.74788386    -0.22300
C3608       C  0.88965860  0.65935615  0.74749111     0.00700
H3609       H  0.94031368  0.72122808  0.76210610     0.14400
H3610       H  0.94071125  0.66629079  0.73236476     0.14500
N3611       N  0.75270009  0.62389214  0.83772412    -0.01800
C3612       C  0.73249779  0.63743378  0.85945330     0.00800
C3613       C  0.73111643  0.67111641  0.85033573    -0.22100
C3614       C  0.74164379  0.67523073  0.81879901    -0.22300
C3615       C  0.75174482  0.64460556  0.81069169     0.00700
H3616       H  0.71505833  0.68780362  0.86071287     0.14400
H3617       H  0.73636030  0.69603768  0.80260327     0.14500
O3618       O  0.84159866  0.54987545  0.85458306    -0.79300
O3619       O  0.83258247  0.69508918  0.88059523    -0.63900
O3620       O  0.86637741  0.61342877  0.85727067    -1.10500
C3621       C  0.85381561  0.58909118  0.97190909     1.07600
O3622       O  0.87223097  0.69648712  0.91492778    -0.77100
O3623       O  0.91232935  0.64905450  0.94052714    -0.64700
Ni3624     Ni  0.84528780  0.58791919  0.82480495     1.34900
C3625       C  0.92685743  0.62756838  0.92520872     0.86400
O3626       O  0.85305205  0.67190723  0.82223043    -0.77700
O3627       O  0.85096664  0.62524052  0.79352074    -0.88000
C3628       C  0.84651664  0.70846296  0.90437138     0.85900
O3629       O  0.80021708  0.59585420  0.83129928    -0.66200
O3630       O  0.85827406  0.62075435  0.97506632    -0.85500
C3631       C  0.78650965  0.61875569  0.84518338     0.86800
C3632       C  0.85631648  0.65699761  0.79550820     1.08300
H3633       H  0.82504058  0.62819506  0.91692022     0.40100
O3634       O  0.84729485  0.63371107  0.91066653    -1.08100
O3635       O  0.91121383  0.60748406  0.90690491    -0.64800
Ni3636     Ni  0.86548623  0.59339502  0.90096430     1.26300
O3637       O  0.80285233  0.64054808  0.86111022    -0.65000
O3638       O  0.86048864  0.57509746  0.94545403    -0.77300
C3639       C  0.86739615  0.53820593  0.86509280     0.86200
O3640       O  0.88216031  0.55273209  0.88766847    -0.64500
Ni3641     Ni  0.86692775  0.65835137  0.94446409     1.27400
Ni3642     Ni  0.84860143  0.65405889  0.86700203     1.26100
H3643       H  0.88852098  0.61857773  0.85043306     0.40700
N3644       N  0.58298464  0.81465356  0.77729900    -0.01800
C3645       C  0.56742705  0.83037877  0.75298372     0.00800
C3646       C  0.55324514  0.85765853  0.76448778    -0.22100
C3647       C  0.56025370  0.85878867  0.79675465    -0.22300
C3648       C  0.57883427  0.83243498  0.80386869     0.00700
H3649       H  0.54184228  0.87670736  0.75020078     0.14400
H3650       H  0.55403525  0.87788912  0.81278300     0.14500
O3651       O  0.55744928  0.80177872  0.92058098    -0.79300
O3652       O  0.67143954  0.89060654  0.84650243    -0.63900
O3653       O  0.60769214  0.84768266  0.90519226    -1.10500
C3654       C  0.55302091  0.94017132  0.87634639     1.07600
O3655       O  0.66126910  0.94403240  0.85350086    -0.77100
O3656       O  0.63521838  0.93296198  0.91383472    -0.64700
Ni3657     Ni  0.59748915  0.80110777  0.89850170     1.34900
C3658       C  0.61784434  0.91805394  0.93629218     0.86400
O3659       O  0.67081151  0.83739435  0.88992529    -0.77700
O3660       O  0.63741826  0.79643915  0.87713155    -0.88000
C3661       C  0.67894035  0.92200109  0.84337915     0.85900
O3662       O  0.57876474  0.81322947  0.85838429    -0.66200
O3663       O  0.57791115  0.95062045  0.89103016    -0.85500
C3664       C  0.59479045  0.82843450  0.83509412     0.86800
C3665       C  0.66253439  0.80632707  0.89154234     1.08300
H3666       H  0.60129906  0.89772160  0.84239592     0.40100
O3667       O  0.60809074  0.89921621  0.86479087    -1.08100
O3668       O  0.58984925  0.90360134  0.93104907    -0.64800
Ni3669     Ni  0.57549465  0.87792706  0.89364711     1.26300
O3670       O  0.62313196  0.84290765  0.83871685    -0.65000
O3671       O  0.54471511  0.90898814  0.87824882    -0.77300
C3672       C  0.53813711  0.82321764  0.92840453     0.86200
O3673       O  0.54290574  0.85467705  0.92156933    -0.64500
Ni3674     Ni  0.61929143  0.94537245  0.87243100     1.27400
Ni3675     Ni  0.63971239  0.86842390  0.87546024     1.26100
H3676       H  0.61451976  0.84990243  0.92719531     0.40700
N3677       N  0.80820389  0.75478228  0.91255814    -0.01800
C3678       C  0.80833658  0.77881557  0.93487626     0.00800
C3679       C  0.82896157  0.77143479  0.95995289    -0.22100
C3680       C  0.84488575  0.74476044  0.95132760    -0.22300
C3681       C  0.83243541  0.73527324  0.92212061     0.00700
H3682       H  0.83503510  0.78653827  0.98035040     0.14400
H3683       H  0.86443676  0.73421313  0.96443417     0.14500
N3684       N  0.73289573  0.91405641  0.81950419    -0.01800
C3685       C  0.76129397  0.92422647  0.83336314     0.00800
C3686       C  0.75870446  0.95193037  0.85124352    -0.24900
C3687       C  0.72728994  0.95874003  0.85005055    -0.22300
C3688       C  0.71161703  0.93402428  0.83245134     0.00700
H3689       H  0.77686461  0.96336295  0.86666708     0.14400
H3690       H  0.71628620  0.97593084  0.86538034     0.14500
N3691       N  0.83805490  0.83103144  0.76116592    -0.01800
C3692       C  0.82013982  0.83211960  0.78843137     0.00800
C3693       C  0.78976710  0.84178914  0.78115174    -0.22100
C3694       C  0.78983697  0.84913205  0.74848264    -0.22300
C3695       C  0.81996354  0.84314533  0.73710949     0.00700
H3696       H  0.77139621  0.84773102  0.79813296     0.14400
H3697       H  0.77094370  0.86012898  0.73504168     0.14500
O3698       O  0.90332073  0.90726189  0.82919901    -0.79300
O3699       O  0.79362580  0.82500807  0.90011484    -0.63900
O3700       O  0.85376257  0.89823629  0.87002088    -1.10500
C3701       C  0.92732671  0.83175042  0.92885791     1.07600
O3702       O  0.81614565  0.83563564  0.94475282    -0.77100
O3703       O  0.87266651  0.86261990  0.96532277    -0.64700
Ni3704     Ni  0.85824530  0.90669130  0.82446683     1.34900
C3705       C  0.88320759  0.89205443  0.95692766     0.86400
O3706       O  0.78846459  0.88692121  0.86689337    -0.77700
O3707       O  0.81189748  0.90727946  0.81930448    -0.88000
C3708       C  0.80107955  0.81442913  0.92807943     0.85900
O3709       O  0.86012983  0.86119923  0.81636301    -0.66200
O3710       O  0.90251113  0.81466873  0.94052264    -0.85500
C3711       C  0.83507292  0.84205729  0.81855712     0.86800
C3712       C  0.78819652  0.90360066  0.83950339     1.08300
H3713       H  0.86581769  0.82431167  0.88535407     0.40100
O3714       O  0.86118293  0.84214323  0.89917471    -1.08100
O3715       O  0.88504761  0.90343116  0.92788894    -0.64800
Ni3716     Ni  0.89131196  0.87988142  0.88946547     1.26300
O3717       O  0.81915972  0.83853364  0.84462731    -0.65000
O3718       O  0.92691519  0.85863256  0.91037191    -0.77300
C3719       C  0.91319090  0.92979589  0.84751714     0.86200
O3720       O  0.91887465  0.91981843  0.87627363    -0.64500
Ni3721     Ni  0.85913593  0.82476382  0.94278455     1.27400
Ni3722     Ni  0.82281850  0.86247744  0.88381715     1.26100
H3723       H  0.84895349  0.91857518  0.88009244     0.40700
N3724       N  0.73391001  0.59689822  0.68197467    -0.01800
C3725       C  0.70965832  0.57371290  0.67459598     0.00800
C3726       C  0.72223193  0.54705126  0.66015222    -0.22100
C3727       C  0.75448589  0.55533107  0.65584147    -0.22300
C3728       C  0.76091110  0.58660588  0.66808429     0.00700
H3729       H  0.70882651  0.52651919  0.64901009     0.14400
H3730       H  0.77032814  0.54253785  0.64058870     0.14500
O3731       O  0.80546111  0.61920387  0.55784526    -0.79300
O3732       O  0.85704614  0.65510910  0.69970790    -0.63900
O3733       O  0.84334403  0.63985600  0.60871051    -1.10500
C3734       C  0.88878220  0.54085102  0.63681296     1.07600
O3735       O  0.89682582  0.62091632  0.70896516    -0.77100
O3736       O  0.91803223  0.63109012  0.64695068    -0.64700
Ni3737     Ni  0.80122150  0.64738115  0.59315720     1.34900
C3738       C  0.91805887  0.63217126  0.61617627     0.86400
O3739       O  0.83926695  0.69517780  0.64615991    -0.77700
O3740       O  0.79396480  0.67755289  0.62612122    -0.88000
C3741       C  0.87910016  0.64338687  0.71756341     0.85900
O3742       O  0.78494662  0.61063375  0.62052164    -0.66200
O3743       O  0.90947562  0.56490734  0.63955737    -0.85500
C3744       C  0.78511779  0.61035241  0.65128703     0.86800
C3745       C  0.81495164  0.70149336  0.62898111     1.08300
H3746       H  0.84377353  0.58764984  0.66989160     0.40100
O3747       O  0.85960898  0.60179307  0.65735946    -1.08100
O3748       O  0.89897876  0.61257679  0.59998530    -0.64800
Ni3749     Ni  0.85467625  0.59409003  0.61179376     1.26300
O3750       O  0.80443866  0.63031189  0.66679867    -0.65000
O3751       O  0.86462696  0.54683833  0.61933639    -0.77300
C3752       C  0.82464841  0.59837765  0.54844433     0.86200
O3753       O  0.84735732  0.58758734  0.56599388    -0.64500
Ni3754     Ni  0.90157278  0.59375424  0.67322495     1.27400
Ni3755     Ni  0.84880866  0.64787301  0.65411757     1.26100
H3756       H  0.85890136  0.65410344  0.59592724     0.40700
N3757       N  0.71688116  0.90524454  0.68247043    -0.01800
C3758       C  0.73701536  0.89949789  0.65766130     0.00800
C3759       C  0.72878015  0.91623500  0.62949508    -0.22100
C3760       C  0.70254189  0.93287434  0.63685530    -0.22300
C3761       C  0.69465157  0.92428421  0.66895129     0.00700
H3762       H  0.74138099  0.91741912  0.60642430     0.14400
H3763       H  0.68970288  0.94785833  0.61971260     0.14500
N3764       N  0.79577436  0.75550340  0.60493861    -0.01800
C3765       C  0.77723863  0.75302605  0.57804002     0.00800
C3766       C  0.79034401  0.73246013  0.55653647    -0.22100
C3767       C  0.81547001  0.71880932  0.57224562    -0.22300
C3768       C  0.81577104  0.72984737  0.60362086     0.00700
H3769       H  0.77988279  0.72419356  0.53415731     0.14400
H3770       H  0.82662681  0.69704602  0.56427429     0.14500
O3771       O  0.83063150  0.80089131  0.58587703    -0.79300
O3772       O  0.89932967  0.93285380  0.64170636    -0.63900
O3773       O  0.86299167  0.84279981  0.62995127    -1.10500
C3774       C  0.76741020  0.88440401  0.65999915     1.07600
O3775       O  0.86299407  0.94924446  0.67608853    -0.77100
O3776       O  0.84633382  0.88480543  0.70233462    -0.64700
Ni3777     Ni  0.87245627  0.82446997  0.58910937     1.34900
C3778       C  0.83196412  0.85561824  0.70503534     0.86400
O3779       O  0.92358948  0.87214705  0.63329513    -0.77700
O3780       O  0.91616629  0.84336576  0.58841443    -0.88000
C3781       C  0.88869509  0.95482808  0.65936435     0.85900
O3782       O  0.85984599  0.86250307  0.56357945    -0.66200
O3783       O  0.78560945  0.89261153  0.68275307    -0.85500
C3784       C  0.87615148  0.89055882  0.56454646     0.86800
C3785       C  0.93370032  0.85456469  0.61088039     1.08300
H3786       H  0.83192056  0.91248524  0.61932306     0.40100
O3787       O  0.83749539  0.89866157  0.63793660    -1.08100
O3788       O  0.81967899  0.84134040  0.68071305    -0.64800
Ni3789     Ni  0.81955285  0.85301045  0.63454912     1.26300
O3790       O  0.88591093  0.90203108  0.59091253    -0.65000
O3791       O  0.77671523  0.86677465  0.63748054    -0.77300
C3792       C  0.81122785  0.78880172  0.60820109     0.86200
O3793       O  0.80369656  0.80664337  0.63125949    -0.64500
Ni3794     Ni  0.82584814  0.91846682  0.67749189     1.27400
Ni3795     Ni  0.88148353  0.88747841  0.63574306     1.26100
H3796       H  0.86908420  0.82783103  0.64749494     0.40700
O3797       O  0.56291513  0.80675408  0.60732842    -0.79300
O3798       O  0.65086116  0.89114019  0.68958079    -0.63900
O3799       O  0.57642834  0.85565510  0.64656675    -1.10500
C3800       C  0.62830508  0.91295552  0.55375454     1.07600
O3801       O  0.64103330  0.93787893  0.66505427    -0.77100
O3802       O  0.60072723  0.95399914  0.61994618    -0.64700
Ni3803     Ni  0.56273117  0.80908869  0.65291560     1.34900
C3804       C  0.57239520  0.94199921  0.61512170     0.86400
O3805       O  0.59802380  0.85434800  0.70976886    -0.77700
O3806       O  0.56226410  0.81099550  0.69968367    -0.88000
C3807       C  0.66096796  0.92011802  0.67903531     0.85900
O3808       O  0.60310792  0.79066049  0.65218998    -0.66200
O3809       O  0.64204559  0.93353566  0.57290266    -0.85500
C3810       C  0.63155502  0.80275975  0.65619324     0.86800
C3811       C  0.57700530  0.83093056  0.71881272     1.08300
H3812       H  0.64535320  0.87700661  0.61872007     0.40100
O3813       O  0.62755272  0.88915757  0.62567388    -1.08100
O3814       O  0.56564554  0.91161042  0.60815074    -0.64800
Ni3815     Ni  0.59058989  0.87269080  0.60351213     1.26300
O3816       O  0.63849958  0.83313762  0.66301437    -0.65000
O3817       O  0.60707947  0.88956388  0.56242131    -0.77300
C3818       C  0.54322082  0.82450811  0.59298452     0.86200
O3819       O  0.55358609  0.85332146  0.58232745    -0.64500
Ni3820     Ni  0.64120011  0.93565510  0.61952342     1.27400
Ni3821     Ni  0.61367760  0.87186030  0.66860891     1.26100
H3822       H  0.55872918  0.86798773  0.65344061     0.40700
O3823       O  0.65815505  0.56008247  0.65286039    -0.79300
O3824       O  0.53830520  0.63492099  0.60348003    -0.63900
O3825       O  0.62389960  0.61039509  0.62108692    -1.10500
C3826       C  0.61600082  0.66229800  0.71720630     1.07600
O3827       O  0.54187429  0.68305504  0.62823981    -0.77100
O3828       O  0.60666275  0.69941965  0.63737695    -0.64700
Ni3829     Ni  0.63293760  0.56466487  0.61396661     1.34900
C3830       C  0.63565229  0.69546657  0.64506599     0.86400
O3831       O  0.58475419  0.61131851  0.56853923    -0.77700
O3832       O  0.60911474  0.56329681  0.57370204    -0.88000
C3833       C  0.52686692  0.66217218  0.61035507     0.85900
O3834       O  0.59620476  0.54361142  0.63692493    -0.66200
O3835       O  0.59886023  0.68256014  0.70179397    -0.85500
C3836       C  0.56754317  0.54854014  0.62907831     0.86800
C3837       C  0.59128396  0.58311899  0.55848036     1.08300
H3838       H  0.56477269  0.61853627  0.66854764     0.40100
O3839       O  0.57999292  0.63370805  0.65627607    -1.08100
O3840       O  0.64436653  0.66693500  0.65517121    -0.64800
Ni3841     Ni  0.62307897  0.62222079  0.66500892     1.26300
O3842       O  0.55922681  0.57768165  0.62065012    -0.65000
O3843       O  0.61974194  0.63299764  0.70844132    -0.77300
C3844       C  0.67610952  0.58180822  0.66704055     0.86200
O3845       O  0.66632809  0.61015109  0.67266217    -0.64500
Ni3846     Ni  0.57156568  0.67963460  0.66390745     1.27400
Ni3847     Ni  0.58111967  0.62219495  0.61200295     1.26100
H3848       H  0.63917128  0.62546053  0.60876536     0.40700
C3849       C  0.74563340  0.93412102  0.76289191     0.25200
C3850       C  0.73156270  0.90906177  0.78493329    -0.22900
C3851       C  0.71333058  0.88165957  0.77235955     0.20100
C3852       C  0.70955904  0.87936528  0.73856048     0.25200
C3853       C  0.72370036  0.90460661  0.71682408    -0.22800
C3854       C  0.74140678  0.93207512  0.72949730     0.20100
F3855       F  0.75325079  0.95795619  0.70937156    -0.12800
F3856       F  0.76206427  0.96177612  0.77388187    -0.15100
F3857       F  0.69170169  0.85288387  0.72707806    -0.15100
F3858       F  0.69881150  0.85748358  0.79277403    -0.12800
C3859       C  0.75266910  0.65486907  0.74923536     0.25200
C3860       C  0.75087823  0.63238295  0.77685767    -0.22900
C3861       C  0.74358666  0.59803846  0.77204603     0.20100
C3862       C  0.73667408  0.58685066  0.74119649     0.25200
C3863       C  0.73692691  0.60948093  0.71403163    -0.22800
C3864       C  0.74535237  0.64350973  0.71830445     0.20100
F3865       F  0.74607816  0.66578567  0.69246573    -0.12800
F3866       F  0.76166991  0.68785745  0.75189606    -0.15100
F3867       F  0.73026853  0.55349799  0.73773102    -0.15100
F3868       F  0.74229310  0.57498473  0.79727079    -0.12800
C3869       C  0.89380860  0.76582214  0.78104855     0.25200
C3870       C  0.87645066  0.73746698  0.76939895    -0.22900
C3871       C  0.84896902  0.74167815  0.75052503     0.20100
C3872       C  0.83800980  0.77324677  0.74517785     0.25200
C3873       C  0.85472529  0.80150523  0.75778924    -0.22800
C3874       C  0.88332959  0.79766772  0.77470133     0.20100
F3875       F  0.90035404  0.82462379  0.78624505    -0.12800
F3876       F  0.92059559  0.76264807  0.79908790    -0.15100
F3877       F  0.80960880  0.77581092  0.72966402    -0.15100
F3878       F  0.83257803  0.71540071  0.73696020    -0.12800
C3879       C  0.58143962  0.72083508  0.77597285     0.25200
C3880       C  0.61433774  0.71578797  0.77465730    -0.22900
C3881       C  0.63699121  0.74397437  0.77460004     0.20100
C3882       C  0.62677492  0.77644872  0.77582814     0.25200
C3883       C  0.59387226  0.78139926  0.77675288    -0.22800
C3884       C  0.57126858  0.75339773  0.77695261     0.20100
F3885       F  0.53929547  0.75776821  0.77828374    -0.12800
F3886       F  0.55928384  0.69418780  0.77620490    -0.15100
F3887       F  0.64889128  0.80313077  0.77555555    -0.15100
F3888       F  0.66903208  0.73999201  0.77282538    -0.12800
C3889       C  0.68760638  0.73363578  0.58715698     0.25200
C3890       C  0.67971760  0.76093995  0.60529870    -0.22900
C3891       C  0.70093958  0.79044935  0.60208623     0.20100
C3892       C  0.73198045  0.78923332  0.58899910     0.25200
C3893       C  0.74232321  0.75886993  0.57887505    -0.22800
C3894       C  0.71895633  0.73204820  0.57518140     0.20100
F3895       F  0.72711165  0.70280195  0.56333206    -0.12800
F3896       F  0.66630491  0.70660046  0.58458839    -0.15100
F3897       F  0.75235736  0.81734325  0.58768469    -0.15100
F3898       F  0.69302901  0.81969852  0.61409491    -0.12800
C3899       C  0.72736339  0.75970667  0.87813216     0.25200
C3900       C  0.70900889  0.74129424  0.90281630    -0.22900
C3901       C  0.72496181  0.71796347  0.92250017     0.20100
C3902       C  0.75861949  0.71817657  0.92170778     0.25200
C3903       C  0.77714771  0.74157340  0.90138343    -0.22800
C3904       C  0.76110709  0.75951168  0.87728925     0.20100
F3905       F  0.77831769  0.77932778  0.85484441    -0.12800
F3906       F  0.71296285  0.78001427  0.85643240    -0.15100
F3907       F  0.77323742  0.69883564  0.94414267    -0.15100
F3908       F  0.70872112  0.69744912  0.94514638    -0.12800
C3909       C  0.95451932  0.58987873  0.52081743     0.25200
C3910       C  0.96165786  0.61218865  0.49373356    -0.22900
C3911       C  0.97358563  0.64521225  0.49924354     0.20100
C3912       C  0.97841903  0.65564813  0.53064537     0.25200
C3913       C  0.97169190  0.63339874  0.55771268    -0.22800
C3914       C  0.95963662  0.60039682  0.55243704     0.20100
F3915       F  0.95251600  0.57848098  0.57799857    -0.12800
F3916       F  0.94208553  0.55806914  0.51680616    -0.15100
F3917       F  0.48843830  0.68823139  0.53460749    -0.15100
F3918       F  0.48153303  0.66752724  0.97420627    -0.12800
C3919       C  0.46273544  0.81403137  0.53999873     0.25200
C3920       C  0.98133628  0.84003898  0.55395266    -0.22900
C3921       C  0.99875897  0.86394289  0.53302334     0.20100
C3922       C  0.99856950  0.86079472  0.99907277     0.25200
C3923       C  0.98019238  0.83432221  0.98512973    -0.22800
C3924       C  0.46188204  0.81125638  0.00625088     0.20100
F3925       F  0.44473751  0.78444537  0.99449253    -0.12800
F3926       F  0.44671237  0.78986584  0.55938604    -0.15100
F3927       F  0.01682126  0.88328397  0.97982885    -0.15100
F3928       F  0.01614210  0.89023269  0.54541303    -0.12800
C3929       C  0.98657585  0.48680115  0.89081917     0.25200
C3930       C  0.50442649  0.00405050  0.86496649    -0.22900
C3931       C  0.98772780  0.02490974  0.84349204     0.20100
C3932       C  0.95403767  0.02433374  0.84493102     0.25200
C3933       C  0.93621438  0.00330756  0.86797209    -0.22800
C3934       C  0.95284283  0.48709901  0.89259499     0.20100
F3935       F  0.93632908  0.46870500  0.91657133    -0.12800
F3936       F  0.00163540  0.46742509  0.91282804    -0.15100
F3937       F  0.93859804  0.04071619  0.82088842    -0.15100
F3938       F  0.50304499  0.04291602  0.81856050    -0.12800
C3939       C  0.96950172  0.95309773  0.67898130     0.25200
C3940       C  0.95879905  0.98285109  0.69018693    -0.22900
C3941       C  0.98209805  0.50934269  0.69603930     0.20100
C3942       C  0.51375899  0.50838077  0.68456265     0.25200
C3943       C  0.52224398  0.98182460  0.66534882    -0.22800
C3944       C  0.50090904  0.95238517  0.66659289     0.20100
F3945       F  0.50902564  0.92383874  0.65331736    -0.12800
F3946       F  0.94926049  0.92501572  0.67855386    -0.15100
F3947       F  0.53481518  0.53535692  0.68848071    -0.15100
F3948       F  0.97379406  0.53777901  0.70941513    -0.12800
C3949       C  0.87336101  0.97431064  0.02141010     0.25200
C3950       C  0.85942668  0.94555659  0.50701549    -0.22900
C3951       C  0.83375258  0.94860739  0.48563467     0.20100
C3952       C  0.82186269  0.97976742  0.47889713     0.25200
C3953       C  0.83510304  0.50804200  0.49353034    -0.22800
C3954       C  0.86136503  0.00518415  0.01504925     0.20100
F3955       F  0.87364673  0.53163531  0.03104697    -0.12800
F3956       F  0.89971040  0.97297347  0.04044092    -0.15100
F3957       F  0.79686624  0.98205307  0.45824298    -0.15100
F3958       F  0.82104307  0.92147208  0.47048382    -0.12800
C3959       C  0.57571240  0.50453250  0.99044418     0.25200
C3960       C  0.59791025  0.53101935  0.49936423    -0.22900
C3961       C  0.62924895  0.52347570  0.50772481     0.20100
C3962       C  0.63853034  0.99006945  0.50579172     0.25200
C3963       C  0.61630018  0.96407823  0.49649351    -0.22800
C3964       C  0.58473468  0.97138599  0.98944470     0.20100
F3965       F  0.56242995  0.94640377  0.98243480    -0.12800
F3966       F  0.54469322  0.51025381  0.98376388    -0.15100
F3967       F  0.66914040  0.98337101  0.51329259    -0.15100
F3968       F  0.65085974  0.54796623  0.51733582    -0.12800
loop_ 
_geom_bond_atom_site_label_1 
_geom_bond_atom_site_label_2 
_geom_bond_distance 
_geom_bond_site_symmetry_2 
_ccdc_geom_bond_type 
N1            C5   1.358       .  A
N1          C498   1.353       .  A
N1          C987   1.443       .  S
C2          N497   1.353   1_554  A
C2            C3   1.381       .  A
C2          C328   1.462       .  S
C3          C500   1.370   1_554  A
C3            H6   1.083       .  S
C4            C5   1.379       .  A
C4          C499   1.370       .  A
C4            H7   1.081       .  S
C5          C186   1.467       .  S
N8           C12   1.359   1_556  A
N8            C9   1.357       .  A
N8          C645   1.455       .  S
C9           C10   1.382       .  A
C9          C481   1.467       .  S
C10          C11   1.362   1_556  A
C10          H13   1.082       .  S
C11          C12   1.382       .  A
C11          H14   1.083       .  S
C12         C280   1.478       .  S
N15          C16   1.364       .  A
N15        C1011   1.372       .  A
N15         C309   1.446       .  S
C16        C1009   1.381       .  A
C16         C468   1.492       .  S
C17          C18   1.370       .  A
C17        C1008   1.381   1_545  A
C17          H20   1.082       .  S
C18          C19   1.390       .  A
C18          H21   1.082       .  S
C19        N1007   1.372   1_545  A
C19         C262   1.499       .  S
N22          C23   1.362   1_565  A
N22        C1018   1.362       .  A
N22        C1450   1.458   1_565  S
C23          C24   1.379   1_545  A
C23         C127   1.482       .  S
C24        C1017   1.371       .  A
C24          H27   1.083   1_565  S
C25          C26   1.388       .  A
C25        C1016   1.371       .  A
C25          H28   1.083       .  S
C26        N1014   1.362       .  A
C26         C182   1.475       .  S
N29          C30   1.363       .  A
N29        C2017   1.354       .  A
N29         C448   1.457       .  S
C30          C31   1.375       .  A
C30         C313   1.445       .  S
C31          C32   1.359       .  A
C31          H34   1.083       .  S
C32        C2017   1.385       .  A
C32        H2019   1.078       .  S
C33        N2013   1.354   1_455  A
C33        C2016   1.385       .  A
C33         C346   1.455       .  S
H35        C2016   1.078       .  S
N36          C40   1.362       .  A
N36          C37   1.387       .  A
N36         C153   1.478       .  S
C37        C2022   1.391       .  A
C37        C2093   1.534       .  S
C38        C2021   1.391       .  A
C38        C2023   1.371       .  A
C38          H41   1.083       .  S
C39          C40   1.380       .  A
C39        C2022   1.371       .  A
C39        H2026   1.082       .  S
C40         C934   1.496       .  S
H42        C2023   1.082       .  S
N43          C47   1.345       .  A
N43         C540   1.347   1_554  A
N43         C478   1.428       .  S
C44         N539   1.347       .  A
C44          C45   1.384       .  A
C44         C233   1.448       .  S
C45         C542   1.372       .  A
C45          H48   1.082       .  S
C46          C47   1.377       .  A
C46         C541   1.372   1_554  A
C46          H49   1.078       .  S
C47         C312   1.466       .  S
N50          C51   1.355       .  A
N50         C550   1.357   1_554  A
N50         C488   1.450   1_554  S
C51          C52   1.379       .  A
C51         C365   1.462       .  S
C52         C549   1.349   1_554  A
C52          H55   1.082       .  S
C53          C54   1.374       .  A
C53         C548   1.349       .  A
C53          H56   1.075       .  S
C54         N546   1.357       .  A
C54         C113   1.451       .  S
N57          C58   1.362       .  A
N57        C1053   1.371       .  A
N57         C461   1.448       .  S
C58          C59   1.386       .  A
C58         C247   1.489       .  S
C59        C1052   1.357       .  A
C59          H62   1.081       .  S
C60          C61   1.378   1_565  A
C60        C1051   1.357       .  A
C60          H63   1.083   1_565  S
C61        N1049   1.371   1_545  A
C61         C167   1.477       .  S
N64          C68   1.369       .  A
N64        C1057   1.364       .  A
N64         C471   1.465       .  S
C65        N1056   1.365   1_545  A
C65          C66   1.382       .  A
C65         C364   1.491       .  S
C66        C1059   1.369   1_545  A
C66          H69   1.076       .  S
C67          C68   1.379       .  A
C67        C1058   1.369       .  A
C67          H70   1.083       .  S
C68         C332   1.477       .  S
N71          C72   1.361       .  A
N71        C2059   1.360       .  A
N71         C451   1.463       .  S
C72          C73   1.371       .  A
C72         C229   1.448       .  S
C73          C74   1.354       .  A
C73          H76   1.083       .  S
C74        C2059   1.390       .  A
C74        H2061   1.083       .  S
C75        N2055   1.360   1_455  A
C75        C2058   1.390   1_455  A
C75         C200   1.470       .  S
H77        C2058   1.083   1_455  S
N78          C82   1.359       .  A
N78          C79   1.367       .  A
N78         C441   1.446       .  S
C79          C80   1.383       .  A
C79        C2345   1.492       .  S
C80          C81   1.368       .  A
C80        H2067   1.083       .  S
C81          C82   1.383       .  A
C81          H84   1.083       .  S
C82         C266   1.475       .  S
H83        C2064   1.083       .  S
N85          C89   1.362       .  A
N85          C86   1.362       .  A
N85         C428   1.459       .  S
C86          C87   1.388       .  A
C86         C193   1.472       .  S
C87          C88   1.371       .  A
C87          H90   1.082       .  S
C88          C89   1.377       .  A
C88          H91   1.082       .  S
C89         C116   1.479       .  S
N92          C96   1.370       .  A
N92          C93   1.365       .  A
N92         C418   1.466       .  S
C93          C94   1.382       .  A
C93         C358   1.494       .  S
C94          C95   1.368       .  A
C94          H97   1.074       .  S
C95          C96   1.378       .  A
C95          H98   1.083       .  S
C96         C338   1.475       .  S
N99         C103   1.353       .  A
N99         C100   1.350       .  A
N99         C408   1.445       .  S
C100        C101   1.377       .  A
C100        C354   1.456       .  S
C101        C102   1.352       .  A
C101        H104   1.081       .  S
C102        C103   1.377       .  A
C102        H105   1.075       .  S
C103        C119   1.450       .  S
O106       Ni112   1.948       .  S
O106        C127   1.278       .  A
O107       Ni130   1.890       .  S
O107        C116   1.262       .  A
O108       Ni112   1.923       .  S
O108       Ni130   1.913       .  S
O108       Ni124   1.950       .  S
O108        H131   0.966       .  S
C109       C2021   1.533   1_455  S
C109        O126   1.281       .  A
C109        O118   1.281       .  A
O110       Ni129   1.948       .  S
O110        C116   1.278       .  A
O111       Ni129   1.910       .  S
O111        C113   1.272       .  A
Ni112       O115   1.970       .  S
Ni112       O117   1.907       .  S
C113        O123   1.267       .  A
O114       Ni130   1.956       .  S
O114        C120   1.282       .  A
O115        C120   1.279       .  A
O117        C119   1.273       .  A
O118       Ni129   1.978       .  S
C119        O125   1.264       .  A
C120        C140   1.529       .  S
H121        O122   0.966       .  S
O122       Ni130   1.952       .  S
O122       Ni124   1.913       .  S
O122       Ni129   1.924       .  S
O123       Ni124   1.920       .  S
Ni124       O128   1.897       .  S
Ni124       O126   1.956       .  S
O125       Ni130   1.914       .  S
C127        O128   1.263       .  A
N132        C136   1.360       .  A
N132        C133   1.359       .  A
N132        C160   1.457       .  S
C133        C134   1.383       .  A
C133        C398   1.471       .  S
C134        C135   1.359       .  A
C134        H137   1.082       .  S
C135        C136   1.381       .  A
C135        H138   1.083       .  S
C136        C269   1.478       .  S
N139        C143   1.362       .  A
N139        C140   1.384       .  A
N139        C159   1.471       .  S
C140        C141   1.389       .  A
C141        C142   1.371       .  A
C141        H144   1.082       .  S
C142        C143   1.383       .  A
C142        H145   1.081       .  S
C143        C388   1.506       .  S
O146       Ni152   1.907       .  S
O146        C167   1.274       .  A
O147       Ni170   1.927       .  S
O147        C156   1.267       .  A
O148       Ni152   1.907       .  S
O148       Ni170   1.898       .  S
O148       Ni164   1.940       .  S
O148        H171   0.966       .  S
C149        N504   1.455       .  S
C149        O166   1.292       .  A
C149        O158   1.281       .  A
O150       Ni169   1.907       .  S
O150        C156   1.278       .  A
O151       Ni169   1.961       .  S
O151        C153   1.279       .  A
Ni152       O155   1.927       .  S
Ni152       O157   1.945       .  S
C153        O163   1.278       .  A
O154       Ni170   1.956       .  S
O154        C160   1.294       .  A
O155        C160   1.282       .  A
C156        C209   1.484       .  S
O157        C159   1.274       .  A
O158       Ni169   1.930       .  S
C159        O165   1.278       .  A
H161        O162   0.966       .  S
O162       Ni170   1.944       .  S
O162       Ni164   1.894       .  S
O162       Ni169   1.906       .  S
O163       Ni164   1.965       .  S
Ni164       O168   1.922       .  S
Ni164       O166   1.949       .  S
O165       Ni170   1.962       .  S
C167        O168   1.264       .  A
N172        C176   1.356       .  A
N172        C173   1.356       .  A
N172        C411   1.442       .  S
C173        C174   1.383       .  A
C173        C339   1.464       .  S
C174        C175   1.370       .  A
C174        H177   1.083       .  S
C175        C176   1.377       .  A
C175        H178   1.082       .  S
C176        C192   1.464       .  S
O179       Ni185   1.898       .  S
O179        C200   1.272       .  A
O180       Ni203   1.914       .  S
O180        C189   1.273       .  A
O181       Ni185   1.916       .  S
O181       Ni203   1.919       .  S
O181       Ni197   1.922       .  S
O181        H204   0.962       .  S
C182        O199   1.269       .  A
C182        O191   1.260       .  A
O183       Ni202   1.914       .  S
O183        C189   1.275       .  A
O184       Ni202   1.898       .  S
O184        C186   1.270       .  A
Ni185       O188   1.903       .  S
Ni185       O190   1.896       .  S
C186        O196   1.287       .  A
O187       Ni203   1.942       .  S
O187        C193   1.265       .  A
O188        C193   1.255       .  A
C189        C216   1.468       .  S
O190        C192   1.271       .  A
O191       Ni202   1.912       .  S
C192        O198   1.288       .  A
H194        O195   0.974       .  S
O195       Ni203   1.913       .  S
O195       Ni197   1.922       .  S
O195       Ni202   1.916       .  S
O196       Ni197   1.972       .  S
Ni197       O201   1.929       .  S
Ni197       O199   1.943       .  S
O198       Ni203   1.974       .  S
C200        O201   1.278       .  A
N205        C209   1.371       .  A
N205        C206   1.366       .  A
N205        C431   1.448       .  S
C206        C207   1.387       .  A
C206        C236   1.495       .  S
C207        C208   1.361       .  A
C207        H210   1.083       .  S
C208        C209   1.378       .  A
C208        H211   1.083       .  S
N212        C216   1.361       .  A
N212        C213   1.361       .  A
N212        C378   1.455       .  S
C213        C214   1.374       .  A
C213        C240   1.458       .  S
C214        C215   1.357       .  A
C214        H217   1.083       .  S
C215        C216   1.385       .  A
C215        H218   1.083       .  S
N219        C223   1.347       .  A
N219        C220   1.352       .  A
N219        C401   1.429       .  S
C220        C221   1.382       .  A
C220        C239   1.457       .  S
C221        C222   1.369       .  A
C221        H224   1.082       .  S
C222        C223   1.379       .  A
C222        H225   1.077       .  S
C223        C306   1.465       .  S
O226       Ni232   1.886       .  S
O226        C247   1.254       .  A
O227       Ni250   1.949       .  S
O227        C236   1.262       .  A
O228       Ni232   1.904       .  S
O228       Ni250   1.914       .  S
O228       Ni244   1.942       .  S
O228        H251   0.967       .  S
C229        O246   1.291       .  A
C229        O238   1.273       .  A
O230       Ni249   1.876       .  S
O230        C236   1.255       .  A
O231       Ni249   1.872       .  S
O231        C233   1.258       .  A
Ni232       O235   1.944       .  S
Ni232       O237   1.876       .  S
C233        O243   1.264       .  A
O234       Ni250   1.913       .  S
O234        C240   1.287       .  A
O235        C240   1.283       .  A
O237        C239   1.247       .  A
O238       Ni249   1.883       .  S
C239        O245   1.258       .  A
H241        O242   0.966       .  S
O242       Ni250   1.945       .  S
O242       Ni244   1.915       .  S
O242       Ni249   1.901       .  S
O243       Ni244   1.915       .  S
Ni244       O248   1.951       .  S
Ni244       O246   1.951       .  S
O245       Ni250   1.926       .  S
C247        O248   1.266       .  A
N252        C256   1.359       .  A
N252        C253   1.366       .  A
N252        C391   1.445       .  S
C253        C254   1.384       .  A
C253        C372   1.489       .  S
C254        C255   1.367       .  A
C254        H257   1.083       .  S
C255        C256   1.383       .  A
C255        H258   1.083       .  S
C256        C272   1.478       .  S
O259       Ni265   1.905       .  S
O259        C280   1.270       .  A
O260       Ni283   1.953       .  S
O260        C269   1.286       .  A
O261       Ni265   1.914       .  S
O261       Ni283   1.934       .  S
O261       Ni277   1.926       .  S
O261        H284   0.966       .  S
C262        O279   1.274       .  A
C262        O271   1.254       .  A
O263       Ni282   1.897       .  S
O263        C269   1.269       .  A
O264       Ni282   1.887       .  S
O264        C266   1.272       .  A
Ni265       O268   1.903       .  S
Ni265       O270   1.892       .  S
C266        O276   1.289       .  A
O267       Ni283   1.979       .  S
O267        C273   1.276       .  A
O268        C273   1.258       .  A
O270        C272   1.273       .  A
O271       Ni282   1.897       .  S
C272        O278   1.289       .  A
C273        C296   1.506       .  S
H274        O275   0.966       .  S
O275       Ni283   1.932       .  S
O275       Ni277   1.935       .  S
O275       Ni282   1.916       .  S
O276       Ni277   1.983       .  S
Ni277       O281   1.947       .  S
Ni277       O279   1.978       .  S
O278       Ni283   1.984       .  S
C280        O281   1.284       .  A
N285        C289   1.351       .  A
N285        C286   1.360       .  A
N285        C381   1.452       .  S
C286        C287   1.375       .  A
C286        C302   1.446       .  S
C287        C288   1.363       .  A
C287        H290   1.083       .  S
C288        C289   1.386       .  A
C288        H291   1.078       .  S
C289        C335   1.455       .  S
N292        C296   1.374       .  A
N292        C293   1.363       .  A
N292        C320   1.449       .  S
C293        C294   1.379       .  A
C293        C421   1.490       .  S
C294        C295   1.371       .  A
C294        H297   1.082       .  S
C295        C296   1.392       .  A
C295        H298   1.083       .  S
O299       Ni305   1.925       .  S
O299        C320   1.275       .  A
O300       Ni323   1.938       .  S
O300        C309   1.273       .  A
O301       Ni305   1.925       .  S
O301       Ni323   1.921       .  S
O301       Ni317   1.896       .  S
O301        H324   0.966       .  S
C302        O319   1.273       .  A
C302        O311   1.254       .  A
O303       Ni322   1.903       .  S
O303        C309   1.269       .  A
O304       Ni322   1.912       .  S
O304        C306   1.272       .  A
Ni305       O308   1.917       .  S
Ni305       O310   1.919       .  S
C306        O316   1.273       .  A
O307       Ni323   1.905       .  S
O307        C313   1.279       .  A
O308        C313   1.265       .  A
O310        C312   1.271       .  A
O311       Ni322   1.906       .  S
C312        O318   1.263       .  A
H314        O315   0.966       .  S
O315       Ni323   1.921       .  S
O315       Ni317   1.934       .  S
O315       Ni322   1.928       .  S
O316       Ni317   1.943       .  S
Ni317       O321   1.935       .  S
Ni317       O319   1.913       .  S
O318       Ni323   1.921       .  S
C320        O321   1.272       .  A
O325       Ni331   1.893       .  S
O325        C346   1.259       .  A
O326       Ni349   1.910       .  S
O326        C335   1.261       .  A
O327       Ni331   1.914       .  S
O327       Ni349   1.894       .  S
O327       Ni343   1.947       .  S
O327        H350   0.966       .  S
C328        O345   1.275       .  A
C328        O337   1.278       .  A
O329       Ni348   1.891       .  S
O329        C335   1.260       .  A
O330       Ni348   1.891       .  S
O330        C332   1.261       .  A
Ni331       O334   1.940       .  S
Ni331       O336   1.888       .  S
C332        O342   1.276       .  A
O333       Ni349   1.900       .  S
O333        C339   1.273       .  A
O334        C339   1.279       .  A
O336        C338   1.261       .  A
O337       Ni348   1.934       .  S
C338        O344   1.276       .  A
H340        O341   0.967       .  S
O341       Ni349   1.942       .  S
O341       Ni343   1.891       .  S
O341       Ni348   1.911       .  S
O342       Ni343   1.953       .  S
Ni343       O347   1.912       .  S
Ni343       O345   1.904       .  S
O344       Ni349   1.952       .  S
C346        O347   1.259       .  A
O351       Ni357   1.938       .  S
O351        C372   1.273       .  A
O352       Ni375   1.922       .  S
O352        C361   1.268       .  A
O353       Ni357   1.935       .  S
O353       Ni375   1.913       .  S
O353       Ni369   1.902       .  S
O353        H376   0.967       .  S
C354        O371   1.266       .  A
C354        O363   1.273       .  A
O355       Ni374   1.939       .  S
O355        C361   1.276       .  A
O356       Ni374   1.918       .  S
O356        C358   1.270       .  A
Ni357       O360   1.947       .  S
Ni357       O362   1.913       .  S
C358        O368   1.278       .  A
O359       Ni375   1.880       .  S
O359        C365   1.271       .  A
O360        C365   1.275       .  A
C361       C2063   1.492   1_455  S
O362        C364   1.267       .  A
O363       Ni374   1.948       .  S
C364        O370   1.276       .  A
H366        O367   0.967       .  S
O367       Ni375   1.913       .  S
O367       Ni369   1.918       .  S
O367       Ni374   1.940       .  S
O368       Ni369   1.962       .  S
Ni369       O373   1.923       .  S
Ni369       O371   1.875       .  S
O370       Ni375   1.956       .  S
C372        O373   1.266       .  A
C377        C378   1.412       .  A
C377        C382   1.400       .  A
C377        F384   1.357       .  S
C378        C379   1.410       .  A
C379        C380   1.415       .  A
C379        F386   1.356       .  S
C380        C381   1.411       .  A
C380        F385   1.356       .  S
C381        C382   1.404       .  A
C382        F383   1.357       .  S
C387        C388   1.418       .  A
C387        C392   1.407       .  A
C387        F394   1.356       .  S
C388        C389   1.411       .  A
C389        C390   1.399       .  A
C389        F396   1.357       .  S
C390        C391   1.408       .  A
C390        F395   1.358       .  S
C391        C392   1.402       .  A
C392        F393   1.357       .  S
C397        C398   1.407       .  A
C397        C402   1.393       .  A
C397        F404   1.358       .  S
C398        C399   1.407       .  A
C399        C400   1.385       .  A
C399        F406   1.358       .  S
C400        C401   1.408       .  A
C400        F405   1.358       .  S
C401        C402   1.401       .  A
C402        F403   1.355       .  S
C407        C408   1.400       .  A
C407        C412   1.404       .  A
C407        F414   1.357       .  S
C408        C409   1.415       .  A
C409        C410   1.403       .  A
C409        F416   1.357       .  S
C410        C411   1.400       .  A
C410        F415   1.357       .  S
C411        C412   1.408       .  A
C412        F413   1.357       .  S
C417        C418   1.414       .  A
C417        C422   1.399       .  A
C417        F424   1.356       .  S
C418        C419   1.421       .  A
C419        C420   1.402       .  A
C419        F426   1.357       .  S
C420        C421   1.403       .  A
C420        F425   1.356       .  S
C421        C422   1.409       .  A
C422        F423   1.358       .  S
C427        C428   1.413       .  A
C427        C432   1.406       .  A
C427        F434   1.356       .  S
C428        C429   1.416       .  A
C429        C430   1.401       .  A
C429        F436   1.357       .  S
C430        C431   1.408       .  A
C430        F435   1.357       .  S
C431        C432   1.403       .  A
C432        F433   1.355       .  S
C437        C438   1.414   1_554  A
C437        C442   1.407       .  A
C437        F444   1.357       .  S
C438        C439   1.407       .  A
C438        C536   1.497       .  S
C439        C440   1.396   1_556  A
C439       F2926   1.357       .  S
C440        C441   1.409       .  A
C440       F2429   1.357       .  S
C441        C442   1.406       .  A
C442        F443   1.357       .  S
F445       C2424   1.357       .  S
F446       C2919   1.357       .  S
C447       C2432   1.404       .  A
C447        C948   1.405       .  A
C447        F454   1.358       .  S
C448        C449   1.413       .  A
C448       C2431   1.404       .  A
C449        C946   1.416   1_554  A
C449        F456   1.356       .  S
C450        C451   1.410       .  A
C450        C945   1.416       .  A
C450        F455   1.356       .  S
C451       C2436   1.417       .  A
C452        C943   1.405       .  A
C452       C2435   1.417       .  A
C452        F453   1.357       .  S
C457        C462   1.407       .  A
C457       C3434   1.412   1_565  A
C457        F464   1.356       .  S
C458       N1014   1.458       .  S
C458       C3433   1.412   1_455  A
C458       C2443   1.417   1_455  A
C459        C460   1.402       .  A
C459       C2442   1.417       .  A
C459       F2450   1.357       .  S
C460        C461   1.408       .  A
C460        F465   1.358       .  S
C461       C1454   1.404       .  A
C462       C1453   1.404   1_565  A
C462        F463   1.357       .  S
F466       C2443   1.357   1_455  S
C467        C468   1.403       .  A
C467       C2456   1.401       .  A
C467        F474   1.355       .  S
C468       C1461   1.411       .  A
C469       C1460   1.411   1_545  A
C469       C2454   1.399       .  A
C469        F476   1.358       .  S
C470       C2453   1.399   1_455  A
C470       C1463   1.414   1_545  A
C470        F475   1.356       .  S
C471        C472   1.420       .  A
C471       C1462   1.414       .  A
C472       C2451   1.401   1_455  A
C472        F473   1.357       .  S
C477        C482   1.383       .  A
C477        C974   1.409       .  A
C477        F484   1.358       .  S
C478        C479   1.401   1_554  A
C478        C973   1.409       .  A
C479        C480   1.394       .  A
C479        F486   1.357       .  S
C480       C1473   1.406       .  A
C480        F485   1.357       .  S
C481       C1472   1.406   1_545  A
C481       C1970   1.406   1_556  A
C482       C1969   1.407       .  A
C482       F1475   1.358       .  S
F483       C1474   1.358       .  S
C487        C984   1.419       .  A
C487       C1484   1.401   1_545  A
C487        F494   1.357       .  S
C488        C489   1.403   1_556  A
C488        C983   1.419       .  A
C489       C1482   1.405   1_545  A
C489        F496   1.357       .  S
C490        C491   1.410   1_554  A
C490       C1481   1.405       .  A
C490        F495   1.358       .  S
C491        N497   1.443       .  S
C491        C988   1.398       .  A
C492       C1479   1.401       .  A
C492        C987   1.398       .  A
C492        F493   1.357       .  S
N497        C501   1.358       .  A
C498        C499   1.381       .  A
C498        C824   1.462       .  S
C499        H502   1.083       .  S
C500        C501   1.379       .  A
C500        H503   1.081       .  S
C501        C682   1.467       .  S
N504        C508   1.359       .  A
N504        C505   1.357       .  A
C505        C506   1.382       .  A
C505        C977   1.467       .  S
C506        C507   1.362       .  A
C506        H509   1.082       .  S
C507        C508   1.382       .  A
C507        H510   1.083       .  S
C508        C776   1.478       .  S
N511       C1507   1.372       .  A
N511        C512   1.364       .  A
N511        C805   1.446       .  S
C512       C1505   1.381       .  A
C512        C964   1.492       .  S
C513       C1504   1.381   1_545  A
C513        C514   1.370       .  A
C513        H516   1.082       .  S
C514        C515   1.390       .  A
C514        H517   1.082       .  S
C515       N1503   1.372   1_545  A
C515        C758   1.499       .  S
N518       C1514   1.362       .  A
N518        C519   1.362   1_565  A
N518       C1946   1.458   1_565  S
C519        C520   1.379   1_545  A
C519        C623   1.482       .  S
C520       C1513   1.371       .  A
C520        H523   1.083   1_565  S
C521       C1512   1.371       .  A
C521        C522   1.388       .  A
C521        H524   1.083       .  S
C522       N1510   1.362       .  A
C522        C678   1.475       .  S
N525       C2513   1.354       .  A
N525        C526   1.363       .  A
N525        C944   1.457       .  S
C526        C527   1.375       .  A
C526        C809   1.445       .  S
C527        C528   1.359       .  A
C527        H530   1.083       .  S
C528       C2513   1.385       .  A
C528       H2515   1.078       .  S
C529       N2509   1.354   1_455  A
C529       C2512   1.385       .  A
C529        C842   1.455       .  S
H531       C2512   1.078       .  S
N532        C536   1.362       .  A
N532        C533   1.387       .  A
N532        C649   1.478       .  S
C533       C2518   1.391       .  A
C533       C2589   1.534       .  S
C534       C2517   1.391       .  A
C534       C2519   1.371       .  A
C534        H537   1.083       .  S
C535       C2518   1.371       .  A
C535        C536   1.380       .  A
C535       H2522   1.082       .  S
H538       C2519   1.082       .  S
N539        C543   1.345       .  A
N539        C974   1.428       .  S
C540        C541   1.384       .  A
C540        C729   1.449       .  S
C541        H544   1.082       .  S
C542        C543   1.377       .  A
C542        H545   1.078       .  S
C543        C808   1.466       .  S
N546        C547   1.355       .  A
N546        C984   1.450       .  S
C547        C548   1.379       .  A
C547        C861   1.462       .  S
C548        H551   1.082       .  S
C549        C550   1.374       .  A
C549        H552   1.075       .  S
C550        C609   1.451       .  S
N553       C1549   1.371       .  A
N553        C554   1.362       .  A
N553        C957   1.448       .  S
C554        C555   1.386       .  A
C554        C743   1.489       .  S
C555       C1548   1.357       .  A
C555        H558   1.081       .  S
C556       C1547   1.357       .  A
C556        C557   1.378   1_565  A
C556        H559   1.083   1_565  S
C557       N1545   1.371   1_545  A
C557        C663   1.477       .  S
N560        C564   1.369       .  A
N560       C1553   1.364       .  A
N560        C967   1.465       .  S
C561       N1552   1.365   1_545  A
C561        C562   1.382       .  A
C561        C860   1.491       .  S
C562       C1555   1.369   1_545  A
C562        H565   1.076       .  S
C563       C1554   1.369       .  A
C563        C564   1.379       .  A
C563        H566   1.083       .  S
C564        C828   1.477       .  S
N567       C2555   1.360       .  A
N567        C568   1.361       .  A
N567        C947   1.463       .  S
C568        C569   1.371       .  A
C568        C725   1.448       .  S
C569        C570   1.354       .  A
C569        H572   1.083       .  S
C570       C2555   1.390       .  A
C570       H2557   1.083       .  S
C571       N2551   1.360   1_455  A
C571       C2554   1.390   1_455  A
C571        C696   1.471       .  S
H573       C2554   1.083   1_455  S
N574        C578   1.359       .  A
N574        C575   1.367       .  A
N574        C937   1.446       .  S
C575        C576   1.383       .  A
C575       C2841   1.492       .  S
C576        C577   1.368       .  A
C576       H2563   1.083       .  S
C577        C578   1.383       .  A
C577        H580   1.083       .  S
C578        C762   1.475       .  S
H579       C2560   1.083       .  S
N581        C585   1.362       .  A
N581        C582   1.362       .  A
N581        C924   1.459       .  S
C582        C583   1.388       .  A
C582        C689   1.472       .  S
C583        C584   1.371       .  A
C583        H586   1.082       .  S
C584        C585   1.377       .  A
C584        H587   1.082       .  S
C585        C612   1.479       .  S
N588        C592   1.370       .  A
N588        C589   1.365       .  A
N588        C914   1.466       .  S
C589        C590   1.382       .  A
C589        C854   1.494       .  S
C590        C591   1.368       .  A
C590        H593   1.074       .  S
C591        C592   1.378       .  A
C591        H594   1.083       .  S
C592        C834   1.475       .  S
N595        C599   1.353       .  A
N595        C596   1.350       .  A
N595        C904   1.445       .  S
C596        C597   1.377       .  A
C596        C850   1.456       .  S
C597        C598   1.352       .  A
C597        H600   1.081       .  S
C598        C599   1.377       .  A
C598        H601   1.075       .  S
C599        C615   1.450       .  S
O602       Ni608   1.948       .  S
O602        C623   1.278       .  A
O603       Ni626   1.890       .  S
O603        C612   1.262       .  A
O604       Ni608   1.923       .  S
O604       Ni626   1.913       .  S
O604       Ni620   1.950       .  S
O604        H627   0.966       .  S
C605       C2517   1.533   1_455  S
C605        O622   1.281       .  A
C605        O614   1.281       .  A
O606       Ni625   1.948       .  S
O606        C612   1.278       .  A
O607       Ni625   1.910       .  S
O607        C609   1.272       .  A
Ni608       O611   1.970       .  S
Ni608       O613   1.907       .  S
C609        O619   1.267       .  A
O610       Ni626   1.955       .  S
O610        C616   1.282       .  A
O611        C616   1.279       .  A
O613        C615   1.273       .  A
O614       Ni625   1.978       .  S
C615        O621   1.264       .  A
C616        C636   1.529       .  S
H617        O618   0.966       .  S
O618       Ni626   1.952       .  S
O618       Ni620   1.913       .  S
O618       Ni625   1.924       .  S
O619       Ni620   1.920       .  S
Ni620       O624   1.897       .  S
Ni620       O622   1.955       .  S
O621       Ni626   1.914       .  S
C623        O624   1.263       .  A
N628        C632   1.360       .  A
N628        C629   1.359       .  A
N628        C656   1.457       .  S
C629        C630   1.383       .  A
C629        C894   1.471       .  S
C630        C631   1.359       .  A
C630        H633   1.082       .  S
C631        C632   1.381       .  A
C631        H634   1.083       .  S
C632        C765   1.478       .  S
N635        C639   1.362       .  A
N635        C636   1.384       .  A
N635        C655   1.471       .  S
C636        C637   1.389       .  A
C637        C638   1.371       .  A
C637        H640   1.082       .  S
C638        C639   1.383       .  A
C638        H641   1.081       .  S
C639        C884   1.506       .  S
O642       Ni648   1.907       .  S
O642        C663   1.274       .  A
O643       Ni666   1.927       .  S
O643        C652   1.267       .  A
O644       Ni648   1.907       .  S
O644       Ni666   1.898       .  S
O644       Ni660   1.940       .  S
O644        H667   0.966       .  S
C645        O662   1.292       .  A
C645        O654   1.281       .  A
O646       Ni665   1.907       .  S
O646        C652   1.278       .  A
O647       Ni665   1.961       .  S
O647        C649   1.279       .  A
Ni648       O651   1.927       .  S
Ni648       O653   1.945       .  S
C649        O659   1.278       .  A
O650       Ni666   1.956       .  S
O650        C656   1.294       .  A
O651        C656   1.282       .  A
C652        C705   1.484       .  S
O653        C655   1.274       .  A
O654       Ni665   1.930       .  S
C655        O661   1.278       .  A
H657        O658   0.966       .  S
O658       Ni666   1.944       .  S
O658       Ni660   1.894       .  S
O658       Ni665   1.906       .  S
O659       Ni660   1.965       .  S
Ni660       O664   1.922       .  S
Ni660       O662   1.949       .  S
O661       Ni666   1.962       .  S
C663        O664   1.264       .  A
N668        C672   1.356       .  A
N668        C669   1.356       .  A
N668        C907   1.441       .  S
C669        C670   1.383       .  A
C669        C835   1.464       .  S
C670        C671   1.370       .  A
C670        H673   1.083       .  S
C671        C672   1.377       .  A
C671        H674   1.082       .  S
C672        C688   1.464       .  S
O675       Ni681   1.898       .  S
O675        C696   1.272       .  A
O676       Ni699   1.914       .  S
O676        C685   1.273       .  A
O677       Ni681   1.916       .  S
O677       Ni699   1.919       .  S
O677       Ni693   1.922       .  S
O677        H700   0.962       .  S
C678        O695   1.269       .  A
C678        O687   1.260       .  A
O679       Ni698   1.914       .  S
O679        C685   1.275       .  A
O680       Ni698   1.898       .  S
O680        C682   1.270       .  A
Ni681       O684   1.903       .  S
Ni681       O686   1.896       .  S
C682        O692   1.287       .  A
O683       Ni699   1.942       .  S
O683        C689   1.265       .  A
O684        C689   1.255       .  A
C685        C712   1.468       .  S
O686        C688   1.271       .  A
O687       Ni698   1.912       .  S
C688        O694   1.288       .  A
H690        O691   0.974       .  S
O691       Ni699   1.913       .  S
O691       Ni693   1.922       .  S
O691       Ni698   1.916       .  S
O692       Ni693   1.972       .  S
Ni693       O697   1.929       .  S
Ni693       O695   1.943       .  S
O694       Ni699   1.974       .  S
C696        O697   1.278       .  A
N701        C705   1.371       .  A
N701        C702   1.366       .  A
N701        C927   1.448       .  S
C702        C703   1.387       .  A
C702        C732   1.495       .  S
C703        C704   1.361       .  A
C703        H706   1.083       .  S
C704        C705   1.378       .  A
C704        H707   1.083       .  S
N708        C712   1.361       .  A
N708        C709   1.361       .  A
N708        C874   1.455       .  S
C709        C710   1.374       .  A
C709        C736   1.458       .  S
C710        C711   1.357       .  A
C710        H713   1.083       .  S
C711        C712   1.385       .  A
C711        H714   1.083       .  S
N715        C719   1.347       .  A
N715        C716   1.352       .  A
N715        C897   1.429       .  S
C716        C717   1.382       .  A
C716        C735   1.457       .  S
C717        C718   1.369       .  A
C717        H720   1.082       .  S
C718        C719   1.378       .  A
C718        H721   1.077       .  S
C719        C802   1.465       .  S
O722       Ni728   1.886       .  S
O722        C743   1.254       .  A
O723       Ni746   1.949       .  S
O723        C732   1.262       .  A
O724       Ni728   1.904       .  S
O724       Ni746   1.914       .  S
O724       Ni740   1.942       .  S
O724        H747   0.967       .  S
C725        O742   1.291       .  A
C725        O734   1.273       .  A
O726       Ni745   1.876       .  S
O726        C732   1.255       .  A
O727       Ni745   1.872       .  S
O727        C729   1.258       .  A
Ni728       O731   1.944       .  S
Ni728       O733   1.876       .  S
C729        O739   1.264       .  A
O730       Ni746   1.913       .  S
O730        C736   1.287       .  A
O731        C736   1.283       .  A
O733        C735   1.247       .  A
O734       Ni745   1.883       .  S
C735        O741   1.258       .  A
H737        O738   0.967       .  S
O738       Ni746   1.945       .  S
O738       Ni740   1.915       .  S
O738       Ni745   1.901       .  S
O739       Ni740   1.916       .  S
Ni740       O744   1.951       .  S
Ni740       O742   1.951       .  S
O741       Ni746   1.926       .  S
C743        O744   1.266       .  A
N748        C752   1.359       .  A
N748        C749   1.366       .  A
N748        C887   1.445       .  S
C749        C750   1.384       .  A
C749        C868   1.489       .  S
C750        C751   1.367       .  A
C750        H753   1.083       .  S
C751        C752   1.383       .  A
C751        H754   1.083       .  S
C752        C768   1.478       .  S
O755       Ni761   1.905       .  S
O755        C776   1.270       .  A
O756       Ni779   1.953       .  S
O756        C765   1.286       .  A
O757       Ni761   1.914       .  S
O757       Ni779   1.934       .  S
O757       Ni773   1.926       .  S
O757        H780   0.966       .  S
C758        O775   1.274       .  A
C758        O767   1.254       .  A
O759       Ni778   1.897       .  S
O759        C765   1.269       .  A
O760       Ni778   1.887       .  S
O760        C762   1.272       .  A
Ni761       O764   1.903       .  S
Ni761       O766   1.892       .  S
C762        O772   1.289       .  A
O763       Ni779   1.979       .  S
O763        C769   1.276       .  A
O764        C769   1.258       .  A
O766        C768   1.273       .  A
O767       Ni778   1.897       .  S
C768        O774   1.289       .  A
C769        C792   1.506       .  S
H770        O771   0.966       .  S
O771       Ni779   1.932       .  S
O771       Ni773   1.935       .  S
O771       Ni778   1.916       .  S
O772       Ni773   1.983       .  S
Ni773       O777   1.947       .  S
Ni773       O775   1.978       .  S
O774       Ni779   1.984       .  S
C776        O777   1.284       .  A
N781        C785   1.351       .  A
N781        C782   1.360       .  A
N781        C877   1.452       .  S
C782        C783   1.375       .  A
C782        C798   1.446       .  S
C783        C784   1.363       .  A
C783        H786   1.083       .  S
C784        C785   1.386       .  A
C784        H787   1.078       .  S
C785        C831   1.455       .  S
N788        C792   1.374       .  A
N788        C789   1.363       .  A
N788        C816   1.449       .  S
C789        C790   1.379       .  A
C789        C917   1.490       .  S
C790        C791   1.371       .  A
C790        H793   1.082       .  S
C791        C792   1.392       .  A
C791        H794   1.083       .  S
O795       Ni801   1.925       .  S
O795        C816   1.275       .  A
O796       Ni819   1.938       .  S
O796        C805   1.273       .  A
O797       Ni801   1.925       .  S
O797       Ni819   1.921       .  S
O797       Ni813   1.896       .  S
O797        H820   0.966       .  S
C798        O815   1.273       .  A
C798        O807   1.254       .  A
O799       Ni818   1.903       .  S
O799        C805   1.269       .  A
O800       Ni818   1.912       .  S
O800        C802   1.272       .  A
Ni801       O804   1.917       .  S
Ni801       O806   1.919       .  S
C802        O812   1.273       .  A
O803       Ni819   1.905       .  S
O803        C809   1.279       .  A
O804        C809   1.265       .  A
O806        C808   1.271       .  A
O807       Ni818   1.907       .  S
C808        O814   1.263       .  A
H810        O811   0.966       .  S
O811       Ni819   1.921       .  S
O811       Ni813   1.934       .  S
O811       Ni818   1.928       .  S
O812       Ni813   1.943       .  S
Ni813       O817   1.935       .  S
Ni813       O815   1.913       .  S
O814       Ni819   1.921       .  S
C816        O817   1.272       .  A
O821       Ni827   1.893       .  S
O821        C842   1.259       .  A
O822       Ni845   1.910       .  S
O822        C831   1.261       .  A
O823       Ni827   1.914       .  S
O823       Ni845   1.894       .  S
O823       Ni839   1.947       .  S
O823        H846   0.966       .  S
C824        O841   1.275       .  A
C824        O833   1.278       .  A
O825       Ni844   1.890       .  S
O825        C831   1.260       .  A
O826       Ni844   1.890       .  S
O826        C828   1.261       .  A
Ni827       O830   1.940       .  S
Ni827       O832   1.888       .  S
C828        O838   1.276       .  A
O829       Ni845   1.901       .  S
O829        C835   1.273       .  A
O830        C835   1.279       .  A
O832        C834   1.261       .  A
O833       Ni844   1.934       .  S
C834        O840   1.276       .  A
H836        O837   0.967       .  S
O837       Ni845   1.942       .  S
O837       Ni839   1.890       .  S
O837       Ni844   1.911       .  S
O838       Ni839   1.953       .  S
Ni839       O843   1.912       .  S
Ni839       O841   1.904       .  S
O840       Ni845   1.952       .  S
C842        O843   1.259       .  A
O847       Ni853   1.938       .  S
O847        C868   1.273       .  A
O848       Ni871   1.922       .  S
O848        C857   1.268       .  A
O849       Ni853   1.935       .  S
O849       Ni871   1.912       .  S
O849       Ni865   1.902       .  S
O849        H872   0.967       .  S
C850        O867   1.266       .  A
C850        O859   1.273       .  A
O851       Ni870   1.939       .  S
O851        C857   1.276       .  A
O852       Ni870   1.918       .  S
O852        C854   1.270       .  A
Ni853       O856   1.947       .  S
Ni853       O858   1.913       .  S
C854        O864   1.278       .  A
O855       Ni871   1.880       .  S
O855        C861   1.271       .  A
O856        C861   1.275       .  A
C857       C2559   1.492   1_455  S
O858        C860   1.267       .  A
O859       Ni870   1.948       .  S
C860        O866   1.276       .  A
H862        O863   0.967       .  S
O863       Ni871   1.913       .  S
O863       Ni865   1.918       .  S
O863       Ni870   1.940       .  S
O864       Ni865   1.962       .  S
Ni865       O869   1.923       .  S
Ni865       O867   1.875       .  S
O866       Ni871   1.956       .  S
C868        O869   1.266       .  A
C873        C874   1.412       .  A
C873        C878   1.400       .  A
C873        F880   1.357       .  S
C874        C875   1.410       .  A
C875        C876   1.415       .  A
C875        F882   1.356       .  S
C876        C877   1.411       .  A
C876        F881   1.356       .  S
C877        C878   1.404       .  A
C878        F879   1.357       .  S
C883        C884   1.418       .  A
C883        C888   1.407       .  A
C883        F890   1.356       .  S
C884        C885   1.411       .  A
C885        C886   1.399       .  A
C885        F892   1.357       .  S
C886        C887   1.409       .  A
C886        F891   1.358       .  S
C887        C888   1.402       .  A
C888        F889   1.357       .  S
C893        C894   1.407       .  A
C893        C898   1.394       .  A
C893        F900   1.358       .  S
C894        C895   1.406       .  A
C895        C896   1.385       .  A
C895        F902   1.358       .  S
C896        C897   1.408       .  A
C896        F901   1.358       .  S
C897        C898   1.401       .  A
C898        F899   1.355       .  S
C903        C904   1.400       .  A
C903        C908   1.404       .  A
C903        F910   1.357       .  S
C904        C905   1.415       .  A
C905        C906   1.403       .  A
C905        F912   1.357       .  S
C906        C907   1.400       .  A
C906        F911   1.357       .  S
C907        C908   1.408       .  A
C908        F909   1.357       .  S
C913        C914   1.414       .  A
C913        C918   1.400       .  A
C913        F920   1.356       .  S
C914        C915   1.421       .  A
C915        C916   1.402       .  A
C915        F922   1.357       .  S
C916        C917   1.403       .  A
C916        F921   1.356       .  S
C917        C918   1.409       .  A
C918        F919   1.358       .  S
C923        C924   1.413       .  A
C923        C928   1.406       .  A
C923        F930   1.356       .  S
C924        C925   1.417       .  A
C925        C926   1.401       .  A
C925        F932   1.357       .  S
C926        C927   1.408       .  A
C926        F931   1.357       .  S
C927        C928   1.403       .  A
C928        F929   1.355       .  S
C933        C934   1.414       .  A
C933        C938   1.407       .  A
C933        F940   1.357       .  S
C934        C935   1.407       .  A
C935        C936   1.396       .  A
C935       F2430   1.357       .  S
C936        C937   1.409       .  A
C936       F2925   1.357       .  S
C937        C938   1.406       .  A
C938        F939   1.357       .  S
F941       C2920   1.357       .  S
F942       C2423   1.357       .  S
C943       C2928   1.404       .  A
C943        F950   1.358       .  S
C944       C2927   1.404       .  A
C944        C945   1.413       .  A
C945        F952   1.356       .  S
C946        C947   1.410       .  A
C946        F951   1.356       .  S
C947       C2932   1.417   1_556  A
C948       C2931   1.417   1_554  A
C948        F949   1.357   1_554  S
C953       C3930   1.412   1_565  A
C953        C958   1.407       .  A
C953        F960   1.356       .  S
C954       N1510   1.458       .  S
C954       C3929   1.412   1_455  A
C954       C2939   1.417   1_455  A
C955       C2938   1.417       .  A
C955        C956   1.402       .  A
C955       F2946   1.357       .  S
C956        C957   1.408       .  A
C956        F961   1.358       .  S
C957       C1950   1.404       .  A
C958       C1949   1.404   1_565  A
C958        F959   1.357       .  S
F962       C2939   1.357   1_455  S
C963        C964   1.403       .  A
C963       C2952   1.401       .  A
C963        F970   1.355       .  S
C964       C1957   1.411       .  A
C965       C1956   1.411   1_545  A
C965       C2950   1.399       .  A
C965        F972   1.358       .  S
C966       C2949   1.399   1_455  A
C966       C1959   1.414   1_545  A
C966        F971   1.356       .  S
C967       C1958   1.414       .  A
C967        C968   1.420       .  A
C968       C2947   1.401   1_455  A
C968        F969   1.357       .  S
C973        C978   1.383       .  A
C973        F980   1.358       .  S
C974        C975   1.401       .  A
C975        C976   1.394       .  A
C975        F982   1.357       .  S
C976       C1969   1.406       .  A
C976        F981   1.357       .  S
C977       C1968   1.406   1_545  A
C977       C1474   1.406       .  A
C978       C1473   1.407   1_554  A
C978       F1971   1.358       .  S
F979       C1970   1.358       .  S
C983       C1980   1.401   1_545  A
C983        F990   1.357       .  S
C984        C985   1.403       .  A
C985       C1978   1.405   1_545  A
C985        F992   1.357       .  S
C986       C1977   1.405       .  A
C986        C987   1.410       .  A
C986        F991   1.358       .  S
C988       C1975   1.401       .  A
C988        F989   1.357       .  S
N993        C997   1.358       .  A
N993       C1490   1.353       .  A
N993       C1979   1.442       .  S
C994       N1489   1.353   1_554  A
C994        C995   1.381       .  A
C994       C1320   1.462       .  S
C995       C1492   1.370   1_554  A
C995        H998   1.083       .  S
C996       C1491   1.370       .  A
C996        C997   1.379       .  A
C996        H999   1.081       .  S
C997       C1178   1.467       .  S
N1000      C1004   1.359   1_556  A
N1000      C1001   1.358       .  A
N1000      C1637   1.456       .  S
C1001      C1002   1.382       .  A
C1001      C1473   1.468       .  S
C1002      C1003   1.362   1_556  A
C1002      H1005   1.083       .  S
C1003      C1004   1.382       .  A
C1003      H1006   1.083       .  S
C1004      C1272   1.478       .  S
N1007      C1008   1.364       .  A
N1007      C1301   1.447       .  S
C1008      C1460   1.492       .  S
C1009      C1010   1.370       .  A
C1009      H1012   1.082       .  S
C1010      C1011   1.390       .  A
C1010      H1013   1.082       .  S
C1011      C1254   1.499       .  S
N1014      C1015   1.362       .  A
C1015      C1016   1.378       .  A
C1015      C1119   1.482       .  S
C1016      H1019   1.083       .  S
C1017      C1018   1.388       .  A
C1017      H1020   1.083       .  S
C1018      C1174   1.475       .  S
N1021      C3009   1.354       .  A
N1021      C1022   1.363       .  A
N1021      C1440   1.457       .  S
C1022      C1023   1.375       .  A
C1022      C1305   1.444       .  S
C1023      C1024   1.358       .  A
C1023      H1026   1.083       .  S
C1024      C3009   1.384       .  A
C1024      H3011   1.078       .  S
C1025      N3005   1.354   1_455  A
C1025      C3008   1.384       .  A
C1025      C1338   1.454       .  S
H1027      C3008   1.078       .  S
N1028      C1032   1.362       .  A
N1028      C1029   1.387       .  A
N1028      C1145   1.478       .  S
C1029      C3014   1.390       .  A
C1029      C3085   1.534       .  S
C1030      C3013   1.390       .  A
C1030      C3015   1.371       .  A
C1030      H1033   1.083       .  S
C1031      C3014   1.371       .  A
C1031      C1032   1.380       .  A
C1031      H3018   1.082       .  S
C1032      C1926   1.497       .  S
H1034      C3015   1.082       .  S
N1035      C1039   1.346       .  A
N1035      C1532   1.347   1_554  A
N1035      C1470   1.428       .  S
C1036      N1531   1.347       .  A
C1036      C1037   1.384       .  A
C1036      C1225   1.448       .  S
C1037      C1534   1.371       .  A
C1037      H1040   1.082       .  S
C1038      C1533   1.371   1_554  A
C1038      C1039   1.377       .  A
C1038      H1041   1.078       .  S
C1039      C1304   1.466       .  S
N1042      C1542   1.358   1_554  A
N1042      C1043   1.355       .  A
N1042      C1480   1.451   1_554  S
C1043      C1044   1.379       .  A
C1043      C1357   1.462       .  S
C1044      C1541   1.350   1_554  A
C1044      H1047   1.082       .  S
C1045      C1540   1.350       .  A
C1045      C1046   1.374       .  A
C1045      H1048   1.075       .  S
C1046      N1538   1.358       .  A
C1046      C1105   1.451       .  S
N1049      C1050   1.362       .  A
N1049      C1453   1.448   1_565  S
C1050      C1051   1.386       .  A
C1050      C1239   1.489       .  S
C1051      H1054   1.081       .  S
C1052      C1053   1.378       .  A
C1052      H1055   1.083       .  S
C1053      C1159   1.477       .  S
N1056      C1060   1.369       .  A
N1056      C1463   1.464       .  S
C1057      C1058   1.382       .  A
C1057      C1356   1.490       .  S
C1058      H1061   1.076       .  S
C1059      C1060   1.379       .  A
C1059      H1062   1.083       .  S
C1060      C1324   1.477       .  S
N1063      C3051   1.360       .  A
N1063      C1064   1.361       .  A
N1063      C1443   1.462       .  S
C1064      C1065   1.371       .  A
C1064      C1221   1.448       .  S
C1065      C1066   1.354       .  A
C1065      H1068   1.083       .  S
C1066      C3051   1.390       .  A
C1066      H3053   1.083       .  S
C1067      N3047   1.360   1_455  A
C1067      C3050   1.390   1_455  A
C1067      C1192   1.470       .  S
H1069      C3050   1.083   1_455  S
N1070      C1074   1.359       .  A
N1070      C1071   1.366       .  A
N1070      C1433   1.446       .  S
C1071      C1072   1.383       .  A
C1071      C3337   1.492       .  S
C1072      C1073   1.368       .  A
C1072      H3059   1.083       .  S
C1073      C1074   1.384       .  A
C1073      H1076   1.083       .  S
C1074      C1258   1.474       .  S
H1075      C3056   1.083       .  S
N1077      C1081   1.362       .  A
N1077      C1078   1.361       .  A
N1077      C1420   1.459       .  S
C1078      C1079   1.387       .  A
C1078      C1185   1.472       .  S
C1079      C1080   1.370       .  A
C1079      H1082   1.082       .  S
C1080      C1081   1.377       .  A
C1080      H1083   1.082       .  S
C1081      C1108   1.479       .  S
N1084      C1088   1.369       .  A
N1084      C1085   1.364       .  A
N1084      C1410   1.466       .  S
C1085      C1086   1.382       .  A
C1085      C1350   1.493       .  S
C1086      C1087   1.368       .  A
C1086      H1089   1.074       .  S
C1087      C1088   1.378       .  A
C1087      H1090   1.083       .  S
C1088      C1330   1.474       .  S
N1091      C1095   1.353       .  A
N1091      C1092   1.349       .  A
N1091      C1400   1.445       .  S
C1092      C1093   1.377       .  A
C1092      C1346   1.455       .  S
C1093      C1094   1.352       .  A
C1093      H1096   1.081       .  S
C1094      C1095   1.377       .  A
C1094      H1097   1.075       .  S
C1095      C1111   1.449       .  S
O1098     Ni1104   1.948       .  S
O1098      C1119   1.278       .  A
O1099     Ni1122   1.888       .  S
O1099      C1108   1.261       .  A
O1100     Ni1104   1.923       .  S
O1100     Ni1122   1.912       .  S
O1100     Ni1116   1.951       .  S
O1100      H1123   0.966       .  S
C1101      C3013   1.534   1_455  S
C1101      O1118   1.281       .  A
C1101      O1110   1.281       .  A
O1102     Ni1121   1.949       .  S
O1102      C1108   1.278       .  A
O1103     Ni1121   1.910       .  S
O1103      C1105   1.272       .  A
Ni1104     O1107   1.971       .  S
Ni1104     O1109   1.907       .  S
C1105      O1115   1.267       .  A
O1106     Ni1122   1.955       .  S
O1106      C1112   1.282       .  A
O1107      C1112   1.279       .  A
O1109      C1111   1.273       .  A
O1110     Ni1121   1.979       .  S
C1111      O1117   1.263       .  A
C1112      C1132   1.529       .  S
H1113      O1114   0.966       .  S
O1114     Ni1122   1.953       .  S
O1114     Ni1116   1.912       .  S
O1114     Ni1121   1.923       .  S
O1115     Ni1116   1.921       .  S
Ni1116     O1120   1.897       .  S
Ni1116     O1118   1.956       .  S
O1117     Ni1122   1.912       .  S
C1119      O1120   1.263       .  A
N1124      C1128   1.360       .  A
N1124      C1125   1.359       .  A
N1124      C1152   1.457       .  S
C1125      C1126   1.383       .  A
C1125      C1390   1.470       .  S
C1126      C1127   1.358       .  A
C1126      H1129   1.082       .  S
C1127      C1128   1.381       .  A
C1127      H1130   1.083       .  S
C1128      C1261   1.476       .  S
N1131      C1135   1.362       .  A
N1131      C1132   1.384       .  A
N1131      C1151   1.471       .  S
C1132      C1133   1.389       .  A
C1133      C1134   1.371       .  A
C1133      H1136   1.082       .  S
C1134      C1135   1.383       .  A
C1134      H1137   1.081       .  S
C1135      C1380   1.505       .  S
O1138     Ni1144   1.908       .  S
O1138      C1159   1.275       .  A
O1139     Ni1162   1.928       .  S
O1139      C1148   1.267       .  A
O1140     Ni1144   1.907       .  S
O1140     Ni1162   1.898       .  S
O1140     Ni1156   1.941       .  S
O1140      H1163   0.966       .  S
C1141      N1496   1.456       .  S
C1141      O1158   1.292       .  A
C1141      O1150   1.281       .  A
O1142     Ni1161   1.907       .  S
O1142      C1148   1.277       .  A
O1143     Ni1161   1.961       .  S
O1143      C1145   1.279       .  A
Ni1144     O1147   1.928       .  S
Ni1144     O1149   1.945       .  S
C1145      O1155   1.278       .  A
O1146     Ni1162   1.955       .  S
O1146      C1152   1.293       .  A
O1147      C1152   1.282       .  A
C1148      C1201   1.484       .  S
O1149      C1151   1.274       .  A
O1150     Ni1161   1.930       .  S
C1151      O1157   1.278       .  A
H1153      O1154   0.966       .  S
O1154     Ni1162   1.944       .  S
O1154     Ni1156   1.894       .  S
O1154     Ni1161   1.905       .  S
O1155     Ni1156   1.965       .  S
Ni1156     O1160   1.921       .  S
Ni1156     O1158   1.951       .  S
O1157     Ni1162   1.961       .  S
C1159      O1160   1.264       .  A
N1164      C1168   1.356       .  A
N1164      C1165   1.356       .  A
N1164      C1403   1.441       .  S
C1165      C1166   1.384       .  A
C1165      C1331   1.464       .  S
C1166      C1167   1.371       .  A
C1166      H1169   1.083       .  S
C1167      C1168   1.377       .  A
C1167      H1170   1.082       .  S
C1168      C1184   1.465       .  S
O1171     Ni1177   1.898       .  S
O1171      C1192   1.272       .  A
O1172     Ni1195   1.914       .  S
O1172      C1181   1.273       .  A
O1173     Ni1177   1.916       .  S
O1173     Ni1195   1.920       .  S
O1173     Ni1189   1.922       .  S
O1173      H1196   0.962       .  S
C1174      O1191   1.269       .  A
C1174      O1183   1.260       .  A
O1175     Ni1194   1.915       .  S
O1175      C1181   1.275       .  A
O1176     Ni1194   1.899       .  S
O1176      C1178   1.270       .  A
Ni1177     O1180   1.903       .  S
Ni1177     O1182   1.897       .  S
C1178      O1188   1.286       .  A
O1179     Ni1195   1.940       .  S
O1179      C1185   1.265       .  A
O1180      C1185   1.256       .  A
C1181      C1208   1.468       .  S
O1182      C1184   1.271       .  A
O1183     Ni1194   1.911       .  S
C1184      O1190   1.288       .  A
H1186      O1187   0.974       .  S
O1187     Ni1195   1.911       .  S
O1187     Ni1189   1.922       .  S
O1187     Ni1194   1.915       .  S
O1188     Ni1189   1.972       .  S
Ni1189     O1193   1.929       .  S
Ni1189     O1191   1.943       .  S
O1190     Ni1195   1.974       .  S
C1192      O1193   1.278       .  A
N1197      C1201   1.371       .  A
N1197      C1198   1.366       .  A
N1197      C1423   1.448       .  S
C1198      C1199   1.387       .  A
C1198      C1228   1.495       .  S
C1199      C1200   1.360       .  A
C1199      H1202   1.083       .  S
C1200      C1201   1.378       .  A
C1200      H1203   1.083       .  S
N1204      C1208   1.362       .  A
N1204      C1205   1.361       .  A
N1204      C1370   1.455       .  S
C1205      C1206   1.374       .  A
C1205      C1232   1.458       .  S
C1206      C1207   1.357       .  A
C1206      H1209   1.083       .  S
C1207      C1208   1.385       .  A
C1207      H1210   1.083       .  S
N1211      C1215   1.347       .  A
N1211      C1212   1.352       .  A
N1211      C1393   1.428       .  S
C1212      C1213   1.382       .  A
C1212      C1231   1.457       .  S
C1213      C1214   1.369       .  A
C1213      H1216   1.082       .  S
C1214      C1215   1.378       .  A
C1214      H1217   1.076       .  S
C1215      C1298   1.465       .  S
O1218     Ni1224   1.887       .  S
O1218      C1239   1.255       .  A
O1219     Ni1242   1.948       .  S
O1219      C1228   1.262       .  A
O1220     Ni1224   1.903       .  S
O1220     Ni1242   1.915       .  S
O1220     Ni1236   1.941       .  S
O1220      H1243   0.967       .  S
C1221      O1238   1.291       .  A
C1221      O1230   1.273       .  A
O1222     Ni1241   1.876       .  S
O1222      C1228   1.255       .  A
O1223     Ni1241   1.873       .  S
O1223      C1225   1.258       .  A
Ni1224     O1227   1.945       .  S
Ni1224     O1229   1.877       .  S
C1225      O1235   1.263       .  A
O1226     Ni1242   1.912       .  S
O1226      C1232   1.287       .  A
O1227      C1232   1.283       .  A
O1229      C1231   1.247       .  A
O1230     Ni1241   1.883       .  S
C1231      O1237   1.258       .  A
H1233      O1234   0.966       .  S
O1234     Ni1242   1.945       .  S
O1234     Ni1236   1.915       .  S
O1234     Ni1241   1.901       .  S
O1235     Ni1236   1.914       .  S
Ni1236     O1240   1.950       .  S
Ni1236     O1238   1.952       .  S
O1237     Ni1242   1.926       .  S
C1239      O1240   1.266       .  A
N1244      C1248   1.359       .  A
N1244      C1245   1.366       .  A
N1244      C1383   1.445       .  S
C1245      C1246   1.384       .  A
C1245      C1364   1.490       .  S
C1246      C1247   1.367       .  A
C1246      H1249   1.083       .  S
C1247      C1248   1.383       .  A
C1247      H1250   1.083       .  S
C1248      C1264   1.477       .  S
O1251     Ni1257   1.905       .  S
O1251      C1272   1.270       .  A
O1252     Ni1275   1.952       .  S
O1252      C1261   1.285       .  A
O1253     Ni1257   1.913       .  S
O1253     Ni1275   1.934       .  S
O1253     Ni1269   1.926       .  S
O1253      H1276   0.966       .  S
C1254      O1271   1.274       .  A
C1254      O1263   1.253       .  A
O1255     Ni1274   1.896       .  S
O1255      C1261   1.269       .  A
O1256     Ni1274   1.887       .  S
O1256      C1258   1.272       .  A
Ni1257     O1260   1.904       .  S
Ni1257     O1262   1.892       .  S
C1258      O1268   1.289       .  A
O1259     Ni1275   1.978       .  S
O1259      C1265   1.276       .  A
O1260      C1265   1.258       .  A
O1262      C1264   1.272       .  A
O1263     Ni1274   1.896       .  S
C1264      O1270   1.288       .  A
C1265      C1288   1.506       .  S
H1266      O1267   0.966       .  S
O1267     Ni1275   1.932       .  S
O1267     Ni1269   1.935       .  S
O1267     Ni1274   1.916       .  S
O1268     Ni1269   1.983       .  S
Ni1269     O1273   1.948       .  S
Ni1269     O1271   1.979       .  S
O1270     Ni1275   1.983       .  S
C1272      O1273   1.285       .  A
N1277      C1281   1.351       .  A
N1277      C1278   1.359       .  A
N1277      C1373   1.451       .  S
C1278      C1279   1.375       .  A
C1278      C1294   1.445       .  S
C1279      C1280   1.362       .  A
C1279      H1282   1.083       .  S
C1280      C1281   1.386       .  A
C1280      H1283   1.078       .  S
C1281      C1327   1.455       .  S
N1284      C1288   1.374       .  A
N1284      C1285   1.363       .  A
N1284      C1312   1.449       .  S
C1285      C1286   1.379       .  A
C1285      C1413   1.490       .  S
C1286      C1287   1.371       .  A
C1286      H1289   1.082       .  S
C1287      C1288   1.392       .  A
C1287      H1290   1.083       .  S
O1291     Ni1297   1.926       .  S
O1291      C1312   1.275       .  A
O1292     Ni1315   1.939       .  S
O1292      C1301   1.274       .  A
O1293     Ni1297   1.925       .  S
O1293     Ni1315   1.921       .  S
O1293     Ni1309   1.895       .  S
O1293      H1316   0.966       .  S
C1294      O1311   1.272       .  A
C1294      O1303   1.254       .  A
O1295     Ni1314   1.902       .  S
O1295      C1301   1.269       .  A
O1296     Ni1314   1.912       .  S
O1296      C1298   1.272       .  A
Ni1297     O1300   1.917       .  S
Ni1297     O1302   1.919       .  S
C1298      O1308   1.274       .  A
O1299     Ni1315   1.905       .  S
O1299      C1305   1.279       .  A
O1300      C1305   1.265       .  A
O1302      C1304   1.271       .  A
O1303     Ni1314   1.907       .  S
C1304      O1310   1.263       .  A
H1306      O1307   0.966       .  S
O1307     Ni1315   1.921       .  S
O1307     Ni1309   1.935       .  S
O1307     Ni1314   1.928       .  S
O1308     Ni1309   1.944       .  S
Ni1309     O1313   1.936       .  S
Ni1309     O1311   1.911       .  S
O1310     Ni1315   1.920       .  S
C1312      O1313   1.271       .  A
O1317     Ni1323   1.893       .  S
O1317      C1338   1.259       .  A
O1318     Ni1341   1.911       .  S
O1318      C1327   1.260       .  A
O1319     Ni1323   1.914       .  S
O1319     Ni1341   1.894       .  S
O1319     Ni1335   1.946       .  S
O1319      H1342   0.966       .  S
C1320      O1337   1.274       .  A
C1320      O1329   1.279       .  A
O1321     Ni1340   1.890       .  S
O1321      C1327   1.260       .  A
O1322     Ni1340   1.890       .  S
O1322      C1324   1.261       .  A
Ni1323     O1326   1.940       .  S
Ni1323     O1328   1.887       .  S
C1324      O1334   1.276       .  A
O1325     Ni1341   1.900       .  S
O1325      C1331   1.273       .  A
O1326      C1331   1.279       .  A
O1328      C1330   1.261       .  A
O1329     Ni1340   1.935       .  S
C1330      O1336   1.275       .  A
H1332      O1333   0.967       .  S
O1333     Ni1341   1.942       .  S
O1333     Ni1335   1.890       .  S
O1333     Ni1340   1.910       .  S
O1334     Ni1335   1.954       .  S
Ni1335     O1339   1.911       .  S
Ni1335     O1337   1.902       .  S
O1336     Ni1341   1.951       .  S
C1338      O1339   1.259       .  A
O1343     Ni1349   1.938       .  S
O1343      C1364   1.273       .  A
O1344     Ni1367   1.921       .  S
O1344      C1353   1.268       .  A
O1345     Ni1349   1.935       .  S
O1345     Ni1367   1.913       .  S
O1345     Ni1361   1.901       .  S
O1345      H1368   0.967       .  S
C1346      O1363   1.266       .  A
C1346      O1355   1.273       .  A
O1347     Ni1366   1.939       .  S
O1347      C1353   1.276       .  A
O1348     Ni1366   1.919       .  S
O1348      C1350   1.270       .  A
Ni1349     O1352   1.947       .  S
Ni1349     O1354   1.912       .  S
C1350      O1360   1.277       .  A
O1351     Ni1367   1.879       .  S
O1351      C1357   1.271       .  A
O1352      C1357   1.275       .  A
C1353      C3055   1.492   1_455  S
O1354      C1356   1.267       .  A
O1355     Ni1366   1.947       .  S
C1356      O1362   1.276       .  A
H1358      O1359   0.967       .  S
O1359     Ni1367   1.912       .  S
O1359     Ni1361   1.918       .  S
O1359     Ni1366   1.940       .  S
O1360     Ni1361   1.960       .  S
Ni1361     O1365   1.924       .  S
Ni1361     O1363   1.875       .  S
O1362     Ni1367   1.956       .  S
C1364      O1365   1.267       .  A
C1369      C1370   1.412       .  A
C1369      C1374   1.400       .  A
C1369      F1376   1.357       .  S
C1370      C1371   1.410       .  A
C1371      C1372   1.415       .  A
C1371      F1378   1.356       .  S
C1372      C1373   1.411       .  A
C1372      F1377   1.356       .  S
C1373      C1374   1.404       .  A
C1374      F1375   1.357       .  S
C1379      C1380   1.418       .  A
C1379      C1384   1.407       .  A
C1379      F1386   1.356       .  S
C1380      C1381   1.411       .  A
C1381      C1382   1.398       .  A
C1381      F1388   1.357       .  S
C1382      C1383   1.408       .  A
C1382      F1387   1.358       .  S
C1383      C1384   1.402       .  A
C1384      F1385   1.357       .  S
C1389      C1390   1.407       .  A
C1389      C1394   1.393       .  A
C1389      F1396   1.358       .  S
C1390      C1391   1.407       .  A
C1391      C1392   1.385       .  A
C1391      F1398   1.358       .  S
C1392      C1393   1.408       .  A
C1392      F1397   1.358       .  S
C1393      C1394   1.401       .  A
C1394      F1395   1.355       .  S
C1399      C1400   1.401       .  A
C1399      C1404   1.404       .  A
C1399      F1406   1.357       .  S
C1400      C1401   1.415       .  A
C1401      C1402   1.402       .  A
C1401      F1408   1.357       .  S
C1402      C1403   1.400       .  A
C1402      F1407   1.357       .  S
C1403      C1404   1.408       .  A
C1404      F1405   1.357       .  S
C1409      C1410   1.414       .  A
C1409      C1414   1.399       .  A
C1409      F1416   1.356       .  S
C1410      C1411   1.422       .  A
C1411      C1412   1.402       .  A
C1411      F1418   1.357       .  S
C1412      C1413   1.403       .  A
C1412      F1417   1.356       .  S
C1413      C1414   1.409       .  A
C1414      F1415   1.358       .  S
C1419      C1420   1.414       .  A
C1419      C1424   1.406       .  A
C1419      F1426   1.356       .  S
C1420      C1421   1.416       .  A
C1421      C1422   1.401       .  A
C1421      F1428   1.357       .  S
C1422      C1423   1.408       .  A
C1422      F1427   1.357       .  S
C1423      C1424   1.403       .  A
C1424      F1425   1.355       .  S
C1429      C1430   1.414   1_554  A
C1429      C1434   1.407       .  A
C1429      F1436   1.357       .  S
C1430      C1431   1.408       .  A
C1430      C1528   1.497       .  S
C1431      C1432   1.396   1_556  A
C1431      F3918   1.357       .  S
C1432      C1433   1.409       .  A
C1432      F3421   1.357       .  S
C1433      C1434   1.406       .  A
C1434      F1435   1.357       .  S
F1437      C3416   1.357       .  S
F1438      C3911   1.357       .  S
C1439      C3424   1.405       .  A
C1439      C1940   1.405       .  A
C1439      F1446   1.357       .  S
C1440      C3423   1.405       .  A
C1440      C1441   1.413       .  A
C1441      C1938   1.416   1_554  A
C1441      F1448   1.356       .  S
C1442      C1937   1.416       .  A
C1442      C1443   1.410       .  A
C1442      F1447   1.356       .  S
C1443      C3428   1.417       .  A
C1444      C1935   1.405       .  A
C1444      C3427   1.417       .  A
C1444      F1445   1.357       .  S
C1449      C2442   1.412       .  A
C1449      C1454   1.407       .  A
C1449      F1456   1.356       .  S
C1450      C2441   1.412   1_445  A
C1450      C3435   1.416   1_455  A
C1451      C3434   1.416       .  A
C1451      C1452   1.402       .  A
C1451      F3442   1.357       .  S
C1452      C1453   1.408       .  A
C1452      F1457   1.358       .  S
C1454      F1455   1.356       .  S
F1458      C3435   1.357   1_455  S
C1459      C1460   1.402       .  A
C1459      C3448   1.400       .  A
C1459      F1466   1.355       .  S
C1461      C3446   1.399       .  A
C1461      F1468   1.358       .  S
C1462      C3445   1.399   1_455  A
C1462      F1467   1.356       .  S
C1463      C1464   1.420       .  A
C1464      C3443   1.401   1_455  A
C1464      F1465   1.357       .  S
C1469      C1966   1.409       .  A
C1469      C1474   1.383   1_565  A
C1469      F1476   1.358       .  S
C1470      C1965   1.409       .  A
C1470      C1471   1.402   1_554  A
C1471      C1472   1.394       .  A
C1471      F1478   1.357       .  S
C1472      F1477   1.358       .  S
C1479      C1976   1.419       .  A
C1479      F1486   1.357       .  S
C1480      C1975   1.419       .  A
C1480      C1481   1.404   1_556  A
C1481      F1488   1.357       .  S
C1482      C1483   1.410   1_554  A
C1482      F1487   1.357       .  S
C1483      N1489   1.442       .  S
C1483      C1980   1.398       .  A
C1484      C1979   1.398       .  A
C1484      F1485   1.357       .  S
N1489      C1493   1.358       .  A
C1490      C1491   1.381       .  A
C1490      C1816   1.461       .  S
C1491      H1494   1.083       .  S
C1492      C1493   1.379       .  A
C1492      H1495   1.081       .  S
C1493      C1674   1.467       .  S
N1496      C1500   1.359       .  A
N1496      C1497   1.358       .  A
C1497      C1498   1.382       .  A
C1497      C1969   1.468       .  S
C1498      C1499   1.362       .  A
C1498      H1501   1.083       .  S
C1499      C1500   1.382       .  A
C1499      H1502   1.083       .  S
C1500      C1768   1.478       .  S
N1503      C1504   1.364       .  A
N1503      C1797   1.447       .  S
C1504      C1956   1.492       .  S
C1505      C1506   1.370       .  A
C1505      H1508   1.082       .  S
C1506      C1507   1.390       .  A
C1506      H1509   1.082       .  S
C1507      C1750   1.499       .  S
N1510      C1511   1.362       .  A
C1511      C1512   1.378       .  A
C1511      C1615   1.482       .  S
C1512      H1515   1.083       .  S
C1513      C1514   1.388       .  A
C1513      H1516   1.083       .  S
C1514      C1670   1.475       .  S
N1517      C3505   1.354       .  A
N1517      C1518   1.363       .  A
N1517      C1936   1.457       .  S
C1518      C1519   1.375       .  A
C1518      C1801   1.444       .  S
C1519      C1520   1.358       .  A
C1519      H1522   1.083       .  S
C1520      C3505   1.384       .  A
C1520      H3507   1.078       .  S
C1521      N3501   1.354   1_455  A
C1521      C3504   1.384       .  A
C1521      C1834   1.454       .  S
H1523      C3504   1.078       .  S
N1524      C1528   1.362       .  A
N1524      C1525   1.387       .  A
N1524      C1641   1.478       .  S
C1525      C3510   1.390       .  A
C1525      C3581   1.534       .  S
C1526      C3509   1.390       .  A
C1526      C3511   1.371       .  A
C1526      H1529   1.083       .  S
C1527      C3510   1.371       .  A
C1527      C1528   1.380       .  A
C1527      H3514   1.082       .  S
H1530      C3511   1.082       .  S
N1531      C1535   1.346       .  A
N1531      C1966   1.428       .  S
C1532      C1533   1.384       .  A
C1532      C1721   1.448       .  S
C1533      H1536   1.082       .  S
C1534      C1535   1.377       .  A
C1534      H1537   1.078       .  S
C1535      C1800   1.466       .  S
N1538      C1539   1.355       .  A
N1538      C1976   1.451       .  S
C1539      C1540   1.379       .  A
C1539      C1853   1.462       .  S
C1540      H1543   1.082       .  S
C1541      C1542   1.374       .  A
C1541      H1544   1.075       .  S
C1542      C1601   1.451       .  S
N1545      C1546   1.362       .  A
N1545      C1949   1.448   1_565  S
C1546      C1547   1.386       .  A
C1546      C1735   1.489       .  S
C1547      H1550   1.081       .  S
C1548      C1549   1.378       .  A
C1548      H1551   1.083       .  S
C1549      C1655   1.477       .  S
N1552      C1556   1.369       .  A
N1552      C1959   1.464       .  S
C1553      C1554   1.382       .  A
C1553      C1852   1.490       .  S
C1554      H1557   1.076       .  S
C1555      C1556   1.379       .  A
C1555      H1558   1.083       .  S
C1556      C1820   1.477       .  S
N1559      C3547   1.360       .  A
N1559      C1560   1.361       .  A
N1559      C1939   1.462       .  S
C1560      C1561   1.371       .  A
C1560      C1717   1.448       .  S
C1561      C1562   1.354       .  A
C1561      H1564   1.083       .  S
C1562      C3547   1.390       .  A
C1562      H3549   1.083       .  S
C1563      N3543   1.360   1_455  A
C1563      C3546   1.390   1_455  A
C1563      C1688   1.470       .  S
H1565      C3546   1.083   1_455  S
N1566      C1570   1.359       .  A
N1566      C1567   1.366       .  A
N1566      C1929   1.446       .  S
C1567      C1568   1.383       .  A
C1567      C3833   1.492       .  S
C1568      C1569   1.368       .  A
C1568      H3555   1.083       .  S
C1569      C1570   1.383       .  A
C1569      H1572   1.083       .  S
C1570      C1754   1.474       .  S
H1571      C3552   1.083       .  S
N1573      C1577   1.362       .  A
N1573      C1574   1.361       .  A
N1573      C1916   1.459       .  S
C1574      C1575   1.387       .  A
C1574      C1681   1.472       .  S
C1575      C1576   1.370       .  A
C1575      H1578   1.082       .  S
C1576      C1577   1.377       .  A
C1576      H1579   1.082       .  S
C1577      C1604   1.479       .  S
N1580      C1584   1.369       .  A
N1580      C1581   1.364       .  A
N1580      C1906   1.466       .  S
C1581      C1582   1.382       .  A
C1581      C1846   1.493       .  S
C1582      C1583   1.368       .  A
C1582      H1585   1.074       .  S
C1583      C1584   1.378       .  A
C1583      H1586   1.083       .  S
C1584      C1826   1.474       .  S
N1587      C1591   1.353       .  A
N1587      C1588   1.349       .  A
N1587      C1896   1.445       .  S
C1588      C1589   1.377       .  A
C1588      C1842   1.455       .  S
C1589      C1590   1.352       .  A
C1589      H1592   1.081       .  S
C1590      C1591   1.377       .  A
C1590      H1593   1.075       .  S
C1591      C1607   1.449       .  S
O1594     Ni1600   1.947       .  S
O1594      C1615   1.278       .  A
O1595     Ni1618   1.889       .  S
O1595      C1604   1.261       .  A
O1596     Ni1600   1.923       .  S
O1596     Ni1618   1.912       .  S
O1596     Ni1612   1.951       .  S
O1596      H1619   0.966       .  S
C1597      C3509   1.534   1_455  S
C1597      O1614   1.281       .  A
C1597      O1606   1.281       .  A
O1598     Ni1617   1.949       .  S
O1598      C1604   1.278       .  A
O1599     Ni1617   1.910       .  S
O1599      C1601   1.272       .  A
Ni1600     O1603   1.971       .  S
Ni1600     O1605   1.907       .  S
C1601      O1611   1.267       .  A
O1602     Ni1618   1.955       .  S
O1602      C1608   1.282       .  A
O1603      C1608   1.279       .  A
O1605      C1607   1.273       .  A
O1606     Ni1617   1.979       .  S
C1607      O1613   1.263       .  A
C1608      C1628   1.529       .  S
H1609      O1610   0.966       .  S
O1610     Ni1618   1.952       .  S
O1610     Ni1612   1.912       .  S
O1610     Ni1617   1.923       .  S
O1611     Ni1612   1.921       .  S
Ni1612     O1616   1.897       .  S
Ni1612     O1614   1.956       .  S
O1613     Ni1618   1.912       .  S
C1615      O1616   1.263       .  A
N1620      C1624   1.360       .  A
N1620      C1621   1.359       .  A
N1620      C1648   1.457       .  S
C1621      C1622   1.383       .  A
C1621      C1886   1.470       .  S
C1622      C1623   1.358       .  A
C1622      H1625   1.082       .  S
C1623      C1624   1.381       .  A
C1623      H1626   1.083       .  S
C1624      C1757   1.476       .  S
N1627      C1631   1.362       .  A
N1627      C1628   1.384       .  A
N1627      C1647   1.471       .  S
C1628      C1629   1.389       .  A
C1629      C1630   1.371       .  A
C1629      H1632   1.082       .  S
C1630      C1631   1.383       .  A
C1630      H1633   1.081       .  S
C1631      C1876   1.505       .  S
O1634     Ni1640   1.908       .  S
O1634      C1655   1.275       .  A
O1635     Ni1658   1.927       .  S
O1635      C1644   1.267       .  A
O1636     Ni1640   1.907       .  S
O1636     Ni1658   1.898       .  S
O1636     Ni1652   1.940       .  S
O1636      H1659   0.966       .  S
C1637      O1654   1.292       .  A
C1637      O1646   1.281       .  A
O1638     Ni1657   1.907       .  S
O1638      C1644   1.277       .  A
O1639     Ni1657   1.961       .  S
O1639      C1641   1.279       .  A
Ni1640     O1643   1.928       .  S
Ni1640     O1645   1.946       .  S
C1641      O1651   1.278       .  A
O1642     Ni1658   1.955       .  S
O1642      C1648   1.293       .  A
O1643      C1648   1.282       .  A
C1644      C1697   1.484       .  S
O1645      C1647   1.274       .  A
O1646     Ni1657   1.930       .  S
C1647      O1653   1.278       .  A
H1649      O1650   0.966       .  S
O1650     Ni1658   1.944       .  S
O1650     Ni1652   1.894       .  S
O1650     Ni1657   1.905       .  S
O1651     Ni1652   1.965       .  S
Ni1652     O1656   1.921       .  S
Ni1652     O1654   1.951       .  S
O1653     Ni1658   1.961       .  S
C1655      O1656   1.264       .  A
N1660      C1664   1.356       .  A
N1660      C1661   1.356       .  A
N1660      C1899   1.441       .  S
C1661      C1662   1.384       .  A
C1661      C1827   1.464       .  S
C1662      C1663   1.371       .  A
C1662      H1665   1.083       .  S
C1663      C1664   1.377       .  A
C1663      H1666   1.082       .  S
C1664      C1680   1.465       .  S
O1667     Ni1673   1.897       .  S
O1667      C1688   1.272       .  A
O1668     Ni1691   1.914       .  S
O1668      C1677   1.273       .  A
O1669     Ni1673   1.916       .  S
O1669     Ni1691   1.920       .  S
O1669     Ni1685   1.922       .  S
O1669      H1692   0.962       .  S
C1670      O1687   1.269       .  A
C1670      O1679   1.260       .  A
O1671     Ni1690   1.915       .  S
O1671      C1677   1.275       .  A
O1672     Ni1690   1.899       .  S
O1672      C1674   1.270       .  A
Ni1673     O1676   1.903       .  S
Ni1673     O1678   1.897       .  S
C1674      O1684   1.287       .  A
O1675     Ni1691   1.940       .  S
O1675      C1681   1.265       .  A
O1676      C1681   1.256       .  A
C1677      C1704   1.468       .  S
O1678      C1680   1.271       .  A
O1679     Ni1690   1.911       .  S
C1680      O1686   1.288       .  A
H1682      O1683   0.974       .  S
O1683     Ni1691   1.911       .  S
O1683     Ni1685   1.922       .  S
O1683     Ni1690   1.915       .  S
O1684     Ni1685   1.972       .  S
Ni1685     O1689   1.929       .  S
Ni1685     O1687   1.943       .  S
O1686     Ni1691   1.974       .  S
C1688      O1689   1.278       .  A
N1693      C1697   1.371       .  A
N1693      C1694   1.366       .  A
N1693      C1919   1.448       .  S
C1694      C1695   1.387       .  A
C1694      C1724   1.495       .  S
C1695      C1696   1.360       .  A
C1695      H1698   1.083       .  S
C1696      C1697   1.378       .  A
C1696      H1699   1.083       .  S
N1700      C1704   1.362       .  A
N1700      C1701   1.361       .  A
N1700      C1866   1.455       .  S
C1701      C1702   1.374       .  A
C1701      C1728   1.458       .  S
C1702      C1703   1.357       .  A
C1702      H1705   1.083       .  S
C1703      C1704   1.385       .  A
C1703      H1706   1.083       .  S
N1707      C1711   1.347       .  A
N1707      C1708   1.352       .  A
N1707      C1889   1.428       .  S
C1708      C1709   1.382       .  A
C1708      C1727   1.457       .  S
C1709      C1710   1.369       .  A
C1709      H1712   1.082       .  S
C1710      C1711   1.378       .  A
C1710      H1713   1.076       .  S
C1711      C1794   1.465       .  S
O1714     Ni1720   1.887       .  S
O1714      C1735   1.255       .  A
O1715     Ni1738   1.948       .  S
O1715      C1724   1.262       .  A
O1716     Ni1720   1.904       .  S
O1716     Ni1738   1.915       .  S
O1716     Ni1732   1.941       .  S
O1716      H1739   0.967       .  S
C1717      O1734   1.291       .  A
C1717      O1726   1.273       .  A
O1718     Ni1737   1.876       .  S
O1718      C1724   1.255       .  A
O1719     Ni1737   1.873       .  S
O1719      C1721   1.258       .  A
Ni1720     O1723   1.945       .  S
Ni1720     O1725   1.877       .  S
C1721      O1731   1.263       .  A
O1722     Ni1738   1.912       .  S
O1722      C1728   1.287       .  A
O1723      C1728   1.283       .  A
O1725      C1727   1.247       .  A
O1726     Ni1737   1.883       .  S
C1727      O1733   1.258       .  A
H1729      O1730   0.966       .  S
O1730     Ni1738   1.945       .  S
O1730     Ni1732   1.915       .  S
O1730     Ni1737   1.901       .  S
O1731     Ni1732   1.914       .  S
Ni1732     O1736   1.950       .  S
Ni1732     O1734   1.952       .  S
O1733     Ni1738   1.926       .  S
C1735      O1736   1.266       .  A
N1740      C1744   1.359       .  A
N1740      C1741   1.366       .  A
N1740      C1879   1.445       .  S
C1741      C1742   1.384       .  A
C1741      C1860   1.490       .  S
C1742      C1743   1.367       .  A
C1742      H1745   1.083       .  S
C1743      C1744   1.383       .  A
C1743      H1746   1.083       .  S
C1744      C1760   1.477       .  S
O1747     Ni1753   1.905       .  S
O1747      C1768   1.270       .  A
O1748     Ni1771   1.952       .  S
O1748      C1757   1.285       .  A
O1749     Ni1753   1.913       .  S
O1749     Ni1771   1.934       .  S
O1749     Ni1765   1.926       .  S
O1749      H1772   0.966       .  S
C1750      O1767   1.274       .  A
C1750      O1759   1.253       .  A
O1751     Ni1770   1.896       .  S
O1751      C1757   1.269       .  A
O1752     Ni1770   1.887       .  S
O1752      C1754   1.272       .  A
Ni1753     O1756   1.904       .  S
Ni1753     O1758   1.892       .  S
C1754      O1764   1.289       .  A
O1755     Ni1771   1.978       .  S
O1755      C1761   1.276       .  A
O1756      C1761   1.258       .  A
O1758      C1760   1.272       .  A
O1759     Ni1770   1.896       .  S
C1760      O1766   1.288       .  A
C1761      C1784   1.506       .  S
H1762      O1763   0.966       .  S
O1763     Ni1771   1.932       .  S
O1763     Ni1765   1.935       .  S
O1763     Ni1770   1.916       .  S
O1764     Ni1765   1.983       .  S
Ni1765     O1769   1.949       .  S
Ni1765     O1767   1.979       .  S
O1766     Ni1771   1.983       .  S
C1768      O1769   1.285       .  A
N1773      C1777   1.351       .  A
N1773      C1774   1.360       .  A
N1773      C1869   1.451       .  S
C1774      C1775   1.375       .  A
C1774      C1790   1.445       .  S
C1775      C1776   1.362       .  A
C1775      H1778   1.083       .  S
C1776      C1777   1.386       .  A
C1776      H1779   1.078       .  S
C1777      C1823   1.455       .  S
N1780      C1784   1.374       .  A
N1780      C1781   1.363       .  A
N1780      C1808   1.449       .  S
C1781      C1782   1.379       .  A
C1781      C1909   1.490       .  S
C1782      C1783   1.371       .  A
C1782      H1785   1.082       .  S
C1783      C1784   1.392       .  A
C1783      H1786   1.083       .  S
O1787     Ni1793   1.926       .  S
O1787      C1808   1.275       .  A
O1788     Ni1811   1.939       .  S
O1788      C1797   1.274       .  A
O1789     Ni1793   1.925       .  S
O1789     Ni1811   1.921       .  S
O1789     Ni1805   1.895       .  S
O1789      H1812   0.966       .  S
C1790      O1807   1.272       .  A
C1790      O1799   1.254       .  A
O1791     Ni1810   1.902       .  S
O1791      C1797   1.269       .  A
O1792     Ni1810   1.912       .  S
O1792      C1794   1.272       .  A
Ni1793     O1796   1.917       .  S
Ni1793     O1798   1.919       .  S
C1794      O1804   1.274       .  A
O1795     Ni1811   1.905       .  S
O1795      C1801   1.279       .  A
O1796      C1801   1.265       .  A
O1798      C1800   1.271       .  A
O1799     Ni1810   1.907       .  S
C1800      O1806   1.263       .  A
H1802      O1803   0.966       .  S
O1803     Ni1811   1.921       .  S
O1803     Ni1805   1.935       .  S
O1803     Ni1810   1.928       .  S
O1804     Ni1805   1.944       .  S
Ni1805     O1809   1.936       .  S
Ni1805     O1807   1.911       .  S
O1806     Ni1811   1.920       .  S
C1808      O1809   1.271       .  A
O1813     Ni1819   1.893       .  S
O1813      C1834   1.259       .  A
O1814     Ni1837   1.911       .  S
O1814      C1823   1.260       .  A
O1815     Ni1819   1.914       .  S
O1815     Ni1837   1.894       .  S
O1815     Ni1831   1.946       .  S
O1815      H1838   0.966       .  S
C1816      O1833   1.274       .  A
C1816      O1825   1.279       .  A
O1817     Ni1836   1.890       .  S
O1817      C1823   1.260       .  A
O1818     Ni1836   1.889       .  S
O1818      C1820   1.261       .  A
Ni1819     O1822   1.940       .  S
Ni1819     O1824   1.887       .  S
C1820      O1830   1.276       .  A
O1821     Ni1837   1.900       .  S
O1821      C1827   1.273       .  A
O1822      C1827   1.279       .  A
O1824      C1826   1.261       .  A
O1825     Ni1836   1.935       .  S
C1826      O1832   1.275       .  A
H1828      O1829   0.967       .  S
O1829     Ni1837   1.942       .  S
O1829     Ni1831   1.890       .  S
O1829     Ni1836   1.910       .  S
O1830     Ni1831   1.954       .  S
Ni1831     O1835   1.911       .  S
Ni1831     O1833   1.902       .  S
O1832     Ni1837   1.951       .  S
C1834      O1835   1.259       .  A
O1839     Ni1845   1.938       .  S
O1839      C1860   1.273       .  A
O1840     Ni1863   1.922       .  S
O1840      C1849   1.268       .  A
O1841     Ni1845   1.934       .  S
O1841     Ni1863   1.913       .  S
O1841     Ni1857   1.901       .  S
O1841      H1864   0.967       .  S
C1842      O1859   1.266       .  A
C1842      O1851   1.273       .  A
O1843     Ni1862   1.939       .  S
O1843      C1849   1.276       .  A
O1844     Ni1862   1.919       .  S
O1844      C1846   1.270       .  A
Ni1845     O1848   1.947       .  S
Ni1845     O1850   1.912       .  S
C1846      O1856   1.277       .  A
O1847     Ni1863   1.879       .  S
O1847      C1853   1.271       .  A
O1848      C1853   1.275       .  A
C1849      C3551   1.492   1_455  S
O1850      C1852   1.267       .  A
O1851     Ni1862   1.947       .  S
C1852      O1858   1.276       .  A
H1854      O1855   0.967       .  S
O1855     Ni1863   1.912       .  S
O1855     Ni1857   1.918       .  S
O1855     Ni1862   1.940       .  S
O1856     Ni1857   1.960       .  S
Ni1857     O1861   1.924       .  S
Ni1857     O1859   1.875       .  S
O1858     Ni1863   1.956       .  S
C1860      O1861   1.267       .  A
C1865      C1866   1.412       .  A
C1865      C1870   1.400       .  A
C1865      F1872   1.357       .  S
C1866      C1867   1.410       .  A
C1867      C1868   1.415       .  A
C1867      F1874   1.356       .  S
C1868      C1869   1.411       .  A
C1868      F1873   1.356       .  S
C1869      C1870   1.404       .  A
C1870      F1871   1.357       .  S
C1875      C1876   1.418       .  A
C1875      C1880   1.407       .  A
C1875      F1882   1.356       .  S
C1876      C1877   1.411       .  A
C1877      C1878   1.398       .  A
C1877      F1884   1.357       .  S
C1878      C1879   1.408       .  A
C1878      F1883   1.358       .  S
C1879      C1880   1.402       .  A
C1880      F1881   1.357       .  S
C1885      C1886   1.407       .  A
C1885      C1890   1.393       .  A
C1885      F1892   1.358       .  S
C1886      C1887   1.407       .  A
C1887      C1888   1.385       .  A
C1887      F1894   1.358       .  S
C1888      C1889   1.408       .  A
C1888      F1893   1.358       .  S
C1889      C1890   1.401       .  A
C1890      F1891   1.355       .  S
C1895      C1896   1.401       .  A
C1895      C1900   1.404       .  A
C1895      F1902   1.357       .  S
C1896      C1897   1.415       .  A
C1897      C1898   1.402       .  A
C1897      F1904   1.357       .  S
C1898      C1899   1.400       .  A
C1898      F1903   1.357       .  S
C1899      C1900   1.408       .  A
C1900      F1901   1.357       .  S
C1905      C1906   1.414       .  A
C1905      C1910   1.400       .  A
C1905      F1912   1.356       .  S
C1906      C1907   1.422       .  A
C1907      C1908   1.402       .  A
C1907      F1914   1.357       .  S
C1908      C1909   1.403       .  A
C1908      F1913   1.356       .  S
C1909      C1910   1.409       .  A
C1910      F1911   1.358       .  S
C1915      C1916   1.414       .  A
C1915      C1920   1.406       .  A
C1915      F1922   1.356       .  S
C1916      C1917   1.416       .  A
C1917      C1918   1.401       .  A
C1917      F1924   1.357       .  S
C1918      C1919   1.408       .  A
C1918      F1923   1.357       .  S
C1919      C1920   1.403       .  A
C1920      F1921   1.355       .  S
C1925      C1926   1.414       .  A
C1925      C1930   1.407       .  A
C1925      F1932   1.357       .  S
C1926      C1927   1.408       .  A
C1927      C1928   1.396       .  A
C1927      F3422   1.357       .  S
C1928      C1929   1.409       .  A
C1928      F3917   1.357       .  S
C1929      C1930   1.406       .  A
C1930      F1931   1.357       .  S
F1933      C3912   1.357       .  S
F1934      C3415   1.357       .  S
C1935      C3920   1.405       .  A
C1935      F1942   1.357       .  S
C1936      C3919   1.404       .  A
C1936      C1937   1.413       .  A
C1937      F1944   1.356       .  S
C1938      C1939   1.410       .  A
C1938      F1943   1.356       .  S
C1939      C3924   1.417   1_556  A
C1940      C3923   1.417   1_554  A
C1940      F1941   1.357   1_554  S
C1945      C2938   1.412       .  A
C1945      C1950   1.407       .  A
C1945      F1952   1.356       .  S
C1946      C2937   1.412   1_445  A
C1946      C3931   1.416   1_455  A
C1947      C3930   1.416       .  A
C1947      C1948   1.402       .  A
C1947      F3938   1.357       .  S
C1948      C1949   1.408       .  A
C1948      F1953   1.358       .  S
C1950      F1951   1.356       .  S
F1954      C3931   1.357   1_455  S
C1955      C1956   1.402       .  A
C1955      C3944   1.400       .  A
C1955      F1962   1.355       .  S
C1957      C3942   1.399       .  A
C1957      F1964   1.357       .  S
C1958      C3941   1.399   1_455  A
C1958      F1963   1.356       .  S
C1959      C1960   1.420       .  A
C1960      C3939   1.401   1_455  A
C1960      F1961   1.357       .  S
C1965      C1970   1.383   1_565  A
C1965      F1972   1.358       .  S
C1966      C1967   1.402       .  A
C1967      C1968   1.394       .  A
C1967      F1974   1.357       .  S
C1968      F1973   1.358       .  S
C1975      F1982   1.357       .  S
C1976      C1977   1.404       .  A
C1977      F1984   1.357       .  S
C1978      C1979   1.410       .  A
C1978      F1983   1.357       .  S
C1980      F1981   1.357       .  S
N1985      C1989   1.358       .  A
N1985      C2482   1.353       .  A
N1985      C2971   1.443       .  S
C1986      N2481   1.353   1_554  A
C1986      C1987   1.381       .  A
C1986      C2312   1.462       .  S
C1987      C2484   1.370   1_554  A
C1987      H1990   1.083       .  S
C1988      C2483   1.370       .  A
C1988      C1989   1.379       .  A
C1988      H1991   1.081       .  S
C1989      C2170   1.467       .  S
N1992      C1996   1.359   1_556  A
N1992      C1993   1.357       .  A
N1992      C2629   1.455       .  S
C1993      C1994   1.382       .  A
C1993      C2465   1.467       .  S
C1994      C1995   1.362   1_556  A
C1994      H1997   1.082       .  S
C1995      C1996   1.382       .  A
C1995      H1998   1.083       .  S
C1996      C2264   1.478       .  S
N1999      C2995   1.372       .  A
N1999      C2000   1.364       .  A
N1999      C2293   1.446       .  S
C2000      C2993   1.381       .  A
C2000      C2452   1.492       .  S
C2001      C2992   1.381   1_545  A
C2001      C2002   1.370       .  A
C2001      H2004   1.082       .  S
C2002      C2003   1.390       .  A
C2002      H2005   1.082       .  S
C2003      N2991   1.372   1_545  A
C2003      C2246   1.499       .  S
N2006      C3002   1.362       .  A
N2006      C2007   1.362   1_565  A
N2006      C3434   1.458   1_565  S
C2007      C2008   1.379   1_545  A
C2007      C2111   1.482       .  S
C2008      C3001   1.371       .  A
C2008      H2011   1.083   1_565  S
C2009      C3000   1.371       .  A
C2009      C2010   1.388       .  A
C2009      H2012   1.083       .  S
C2010      N2998   1.362       .  A
C2010      C2166   1.475       .  S
N2013      C2014   1.363       .  A
N2013      C2432   1.457       .  S
C2014      C2015   1.375       .  A
C2014      C2297   1.445       .  S
C2015      C2016   1.359   1_655  A
C2015      H2018   1.083       .  S
C2017      C2330   1.455       .  S
N2020      C2024   1.362       .  A
N2020      C2021   1.387       .  A
N2020      C2137   1.478       .  S
C2022      H2025   1.083       .  S
C2023      C2024   1.380       .  A
C2024      C2918   1.496       .  S
N2027      C2031   1.345       .  A
N2027      C2524   1.347   1_554  A
N2027      C2462   1.428       .  S
C2028      N2523   1.347       .  A
C2028      C2029   1.384       .  A
C2028      C2217   1.449       .  S
C2029      C2526   1.372       .  A
C2029      H2032   1.082       .  S
C2030      C2525   1.372   1_554  A
C2030      C2031   1.377       .  A
C2030      H2033   1.078       .  S
C2031      C2296   1.466       .  S
N2034      C2534   1.357   1_554  A
N2034      C2035   1.355       .  A
N2034      C2472   1.450   1_554  S
C2035      C2036   1.379       .  A
C2035      C2349   1.462       .  S
C2036      C2533   1.349   1_554  A
C2036      H2039   1.082       .  S
C2037      C2532   1.349       .  A
C2037      C2038   1.374       .  A
C2037      H2040   1.075       .  S
C2038      N2530   1.357       .  A
C2038      C2097   1.451       .  S
N2041      C3037   1.371       .  A
N2041      C2042   1.362       .  A
N2041      C2445   1.448       .  S
C2042      C2043   1.386       .  A
C2042      C2231   1.490       .  S
C2043      C3036   1.357       .  A
C2043      H2046   1.081       .  S
C2044      C3035   1.357       .  A
C2044      C2045   1.378   1_565  A
C2044      H2047   1.083   1_565  S
C2045      N3033   1.371   1_545  A
C2045      C2151   1.477       .  S
N2048      C2052   1.369       .  A
N2048      C3041   1.364       .  A
N2048      C2455   1.464       .  S
C2049      N3040   1.365   1_545  A
C2049      C2050   1.382       .  A
C2049      C2348   1.491       .  S
C2050      C3043   1.369   1_545  A
C2050      H2053   1.076       .  S
C2051      C3042   1.369       .  A
C2051      C2052   1.379       .  A
C2051      H2054   1.083       .  S
C2052      C2316   1.477       .  S
N2055      C2056   1.361       .  A
N2055      C2435   1.463       .  S
C2056      C2057   1.371       .  A
C2056      C2213   1.448       .  S
C2057      C2058   1.354       .  A
C2057      H2060   1.083       .  S
C2059      C2184   1.470       .  S
N2062      C2066   1.359       .  A
N2062      C2063   1.367       .  A
N2062      C2425   1.446       .  S
C2063      C2064   1.383       .  A
C2064      C2065   1.368       .  A
C2065      C2066   1.383       .  A
C2065      H2068   1.083       .  S
C2066      C2250   1.475       .  S
N2069      C2073   1.362       .  A
N2069      C2070   1.362       .  A
N2069      C2412   1.459       .  S
C2070      C2071   1.388       .  A
C2070      C2177   1.472       .  S
C2071      C2072   1.371       .  A
C2071      H2074   1.082       .  S
C2072      C2073   1.377       .  A
C2072      H2075   1.082       .  S
C2073      C2100   1.479       .  S
N2076      C2080   1.370       .  A
N2076      C2077   1.365       .  A
N2076      C2402   1.466       .  S
C2077      C2078   1.382       .  A
C2077      C2342   1.494       .  S
C2078      C2079   1.368       .  A
C2078      H2081   1.074       .  S
C2079      C2080   1.378       .  A
C2079      H2082   1.083       .  S
C2080      C2322   1.475       .  S
N2083      C2087   1.353       .  A
N2083      C2084   1.350       .  A
N2083      C2392   1.445       .  S
C2084      C2085   1.377       .  A
C2084      C2338   1.456       .  S
C2085      C2086   1.352       .  A
C2085      H2088   1.081       .  S
C2086      C2087   1.377       .  A
C2086      H2089   1.075       .  S
C2087      C2103   1.450       .  S
O2090     Ni2096   1.948       .  S
O2090      C2111   1.278       .  A
O2091     Ni2114   1.891       .  S
O2091      C2100   1.262       .  A
O2092     Ni2096   1.923       .  S
O2092     Ni2114   1.913       .  S
O2092     Ni2108   1.950       .  S
O2092      H2115   0.966       .  S
C2093      O2110   1.281       .  A
C2093      O2102   1.281       .  A
O2094     Ni2113   1.948       .  S
O2094      C2100   1.278       .  A
O2095     Ni2113   1.910       .  S
O2095      C2097   1.272       .  A
Ni2096     O2099   1.971       .  S
Ni2096     O2101   1.907       .  S
C2097      O2107   1.267       .  A
O2098     Ni2114   1.956       .  S
O2098      C2104   1.282       .  A
O2099      C2104   1.279       .  A
O2101      C2103   1.273       .  A
O2102     Ni2113   1.978       .  S
C2103      O2109   1.264       .  A
C2104      C2124   1.529       .  S
H2105      O2106   0.966       .  S
O2106     Ni2114   1.953       .  S
O2106     Ni2108   1.912       .  S
O2106     Ni2113   1.924       .  S
O2107     Ni2108   1.921       .  S
Ni2108     O2112   1.897       .  S
Ni2108     O2110   1.956       .  S
O2109     Ni2114   1.913       .  S
C2111      O2112   1.263       .  A
N2116      C2120   1.360       .  A
N2116      C2117   1.359       .  A
N2116      C2144   1.457       .  S
C2117      C2118   1.383       .  A
C2117      C2382   1.471       .  S
C2118      C2119   1.359       .  A
C2118      H2121   1.082       .  S
C2119      C2120   1.381       .  A
C2119      H2122   1.083       .  S
C2120      C2253   1.478       .  S
N2123      C2127   1.362       .  A
N2123      C2124   1.384       .  A
N2123      C2143   1.471       .  S
C2124      C2125   1.389       .  A
C2125      C2126   1.371       .  A
C2125      H2128   1.082       .  S
C2126      C2127   1.383       .  A
C2126      H2129   1.080       .  S
C2127      C2372   1.506       .  S
O2130     Ni2136   1.907       .  S
O2130      C2151   1.274       .  A
O2131     Ni2154   1.927       .  S
O2131      C2140   1.267       .  A
O2132     Ni2136   1.907       .  S
O2132     Ni2154   1.898       .  S
O2132     Ni2148   1.940       .  S
O2132      H2155   0.966       .  S
C2133      N2488   1.455       .  S
C2133      O2150   1.291       .  A
C2133      O2142   1.281       .  A
O2134     Ni2153   1.907       .  S
O2134      C2140   1.278       .  A
O2135     Ni2153   1.961       .  S
O2135      C2137   1.279       .  A
Ni2136     O2139   1.927       .  S
Ni2136     O2141   1.945       .  S
C2137      O2147   1.278       .  A
O2138     Ni2154   1.956       .  S
O2138      C2144   1.294       .  A
O2139      C2144   1.282       .  A
C2140      C2193   1.484       .  S
O2141      C2143   1.274       .  A
O2142     Ni2153   1.930       .  S
C2143      O2149   1.278       .  A
H2145      O2146   0.966       .  S
O2146     Ni2154   1.944       .  S
O2146     Ni2148   1.894       .  S
O2146     Ni2153   1.906       .  S
O2147     Ni2148   1.964       .  S
Ni2148     O2152   1.922       .  S
Ni2148     O2150   1.949       .  S
O2149     Ni2154   1.962       .  S
C2151      O2152   1.264       .  A
N2156      C2160   1.356       .  A
N2156      C2157   1.356       .  A
N2156      C2395   1.442       .  S
C2157      C2158   1.383       .  A
C2157      C2323   1.464       .  S
C2158      C2159   1.370       .  A
C2158      H2161   1.083       .  S
C2159      C2160   1.377       .  A
C2159      H2162   1.082       .  S
C2160      C2176   1.464       .  S
O2163     Ni2169   1.898       .  S
O2163      C2184   1.272       .  A
O2164     Ni2187   1.914       .  S
O2164      C2173   1.273       .  A
O2165     Ni2169   1.916       .  S
O2165     Ni2187   1.919       .  S
O2165     Ni2181   1.922       .  S
O2165      H2188   0.962       .  S
C2166      O2183   1.269       .  A
C2166      O2175   1.260       .  A
O2167     Ni2186   1.915       .  S
O2167      C2173   1.275       .  A
O2168     Ni2186   1.898       .  S
O2168      C2170   1.270       .  A
Ni2169     O2172   1.903       .  S
Ni2169     O2174   1.896       .  S
C2170      O2180   1.287       .  A
O2171     Ni2187   1.942       .  S
O2171      C2177   1.265       .  A
O2172      C2177   1.255       .  A
C2173      C2200   1.469       .  S
O2174      C2176   1.271       .  A
O2175     Ni2186   1.912       .  S
C2176      O2182   1.288       .  A
H2178      O2179   0.974       .  S
O2179     Ni2187   1.913       .  S
O2179     Ni2181   1.922       .  S
O2179     Ni2186   1.916       .  S
O2180     Ni2181   1.972       .  S
Ni2181     O2185   1.929       .  S
Ni2181     O2183   1.942       .  S
O2182     Ni2187   1.974       .  S
C2184      O2185   1.278       .  A
N2189      C2193   1.371       .  A
N2189      C2190   1.366       .  A
N2189      C2415   1.448       .  S
C2190      C2191   1.387       .  A
C2190      C2220   1.495       .  S
C2191      C2192   1.361       .  A
C2191      H2194   1.083       .  S
C2192      C2193   1.378       .  A
C2192      H2195   1.083       .  S
N2196      C2200   1.362       .  A
N2196      C2197   1.361       .  A
N2196      C2362   1.455       .  S
C2197      C2198   1.375       .  A
C2197      C2224   1.458       .  S
C2198      C2199   1.357       .  A
C2198      H2201   1.083       .  S
C2199      C2200   1.385       .  A
C2199      H2202   1.083       .  S
N2203      C2207   1.347       .  A
N2203      C2204   1.352       .  A
N2203      C2385   1.429       .  S
C2204      C2205   1.382       .  A
C2204      C2223   1.457       .  S
C2205      C2206   1.369       .  A
C2205      H2208   1.082       .  S
C2206      C2207   1.379       .  A
C2206      H2209   1.077       .  S
C2207      C2290   1.465       .  S
O2210     Ni2216   1.887       .  S
O2210      C2231   1.255       .  A
O2211     Ni2234   1.949       .  S
O2211      C2220   1.262       .  A
O2212     Ni2216   1.904       .  S
O2212     Ni2234   1.914       .  S
O2212     Ni2228   1.942       .  S
O2212      H2235   0.967       .  S
C2213      O2230   1.291       .  A
C2213      O2222   1.273       .  A
O2214     Ni2233   1.876       .  S
O2214      C2220   1.255       .  A
O2215     Ni2233   1.872       .  S
O2215      C2217   1.258       .  A
Ni2216     O2219   1.944       .  S
Ni2216     O2221   1.876       .  S
C2217      O2227   1.264       .  A
O2218     Ni2234   1.912       .  S
O2218      C2224   1.287       .  A
O2219      C2224   1.283       .  A
O2221      C2223   1.247       .  A
O2222     Ni2233   1.883       .  S
C2223      O2229   1.258       .  A
H2225      O2226   0.967       .  S
O2226     Ni2234   1.945       .  S
O2226     Ni2228   1.915       .  S
O2226     Ni2233   1.901       .  S
O2227     Ni2228   1.915       .  S
Ni2228     O2232   1.951       .  S
Ni2228     O2230   1.952       .  S
O2229     Ni2234   1.926       .  S
C2231      O2232   1.266       .  A
N2236      C2240   1.359       .  A
N2236      C2237   1.366       .  A
N2236      C2375   1.445       .  S
C2237      C2238   1.384       .  A
C2237      C2356   1.489       .  S
C2238      C2239   1.367       .  A
C2238      H2241   1.083       .  S
C2239      C2240   1.383       .  A
C2239      H2242   1.083       .  S
C2240      C2256   1.478       .  S
O2243     Ni2249   1.905       .  S
O2243      C2264   1.270       .  A
O2244     Ni2267   1.953       .  S
O2244      C2253   1.286       .  A
O2245     Ni2249   1.914       .  S
O2245     Ni2267   1.934       .  S
O2245     Ni2261   1.926       .  S
O2245      H2268   0.966       .  S
C2246      O2263   1.274       .  A
C2246      O2255   1.254       .  A
O2247     Ni2266   1.897       .  S
O2247      C2253   1.269       .  A
O2248     Ni2266   1.887       .  S
O2248      C2250   1.272       .  A
Ni2249     O2252   1.903       .  S
Ni2249     O2254   1.892       .  S
C2250      O2260   1.289       .  A
O2251     Ni2267   1.979       .  S
O2251      C2257   1.276       .  A
O2252      C2257   1.258       .  A
O2254      C2256   1.273       .  A
O2255     Ni2266   1.897       .  S
C2256      O2262   1.289       .  A
C2257      C2280   1.506       .  S
H2258      O2259   0.966       .  S
O2259     Ni2267   1.932       .  S
O2259     Ni2261   1.935       .  S
O2259     Ni2266   1.916       .  S
O2260     Ni2261   1.983       .  S
Ni2261     O2265   1.947       .  S
Ni2261     O2263   1.978       .  S
O2262     Ni2267   1.984       .  S
C2264      O2265   1.284       .  A
N2269      C2273   1.351       .  A
N2269      C2270   1.360       .  A
N2269      C2365   1.452       .  S
C2270      C2271   1.375       .  A
C2270      C2286   1.446       .  S
C2271      C2272   1.363       .  A
C2271      H2274   1.083       .  S
C2272      C2273   1.386       .  A
C2272      H2275   1.078       .  S
C2273      C2319   1.455       .  S
N2276      C2280   1.374       .  A
N2276      C2277   1.363       .  A
N2276      C2304   1.449       .  S
C2277      C2278   1.379       .  A
C2277      C2405   1.490       .  S
C2278      C2279   1.371       .  A
C2278      H2281   1.082       .  S
C2279      C2280   1.392       .  A
C2279      H2282   1.083       .  S
O2283     Ni2289   1.926       .  S
O2283      C2304   1.275       .  A
O2284     Ni2307   1.938       .  S
O2284      C2293   1.273       .  A
O2285     Ni2289   1.925       .  S
O2285     Ni2307   1.921       .  S
O2285     Ni2301   1.896       .  S
O2285      H2308   0.966       .  S
C2286      O2303   1.272       .  A
C2286      O2295   1.254       .  A
O2287     Ni2306   1.903       .  S
O2287      C2293   1.269       .  A
O2288     Ni2306   1.912       .  S
O2288      C2290   1.272       .  A
Ni2289     O2292   1.917       .  S
Ni2289     O2294   1.919       .  S
C2290      O2300   1.273       .  A
O2291     Ni2307   1.905       .  S
O2291      C2297   1.279       .  A
O2292      C2297   1.265       .  A
O2294      C2296   1.271       .  A
O2295     Ni2306   1.907       .  S
C2296      O2302   1.263       .  A
H2298      O2299   0.966       .  S
O2299     Ni2307   1.920       .  S
O2299     Ni2301   1.934       .  S
O2299     Ni2306   1.928       .  S
O2300     Ni2301   1.943       .  S
Ni2301     O2305   1.935       .  S
Ni2301     O2303   1.913       .  S
O2302     Ni2307   1.921       .  S
C2304      O2305   1.271       .  A
O2309     Ni2315   1.893       .  S
O2309      C2330   1.259       .  A
O2310     Ni2333   1.911       .  S
O2310      C2319   1.261       .  A
O2311     Ni2315   1.914       .  S
O2311     Ni2333   1.894       .  S
O2311     Ni2327   1.947       .  S
O2311      H2334   0.966       .  S
C2312      O2329   1.275       .  A
C2312      O2321   1.278       .  A
O2313     Ni2332   1.890       .  S
O2313      C2319   1.260       .  A
O2314     Ni2332   1.890       .  S
O2314      C2316   1.261       .  A
Ni2315     O2318   1.940       .  S
Ni2315     O2320   1.888       .  S
C2316      O2326   1.276       .  A
O2317     Ni2333   1.901       .  S
O2317      C2323   1.273       .  A
O2318      C2323   1.279       .  A
O2320      C2322   1.261       .  A
O2321     Ni2332   1.934       .  S
C2322      O2328   1.276       .  A
H2324      O2325   0.967       .  S
O2325     Ni2333   1.942       .  S
O2325     Ni2327   1.890       .  S
O2325     Ni2332   1.911       .  S
O2326     Ni2327   1.953       .  S
Ni2327     O2331   1.912       .  S
Ni2327     O2329   1.904       .  S
O2328     Ni2333   1.952       .  S
C2330      O2331   1.259       .  A
O2335     Ni2341   1.938       .  S
O2335      C2356   1.273       .  A
O2336     Ni2359   1.922       .  S
O2336      C2345   1.268       .  A
O2337     Ni2341   1.935       .  S
O2337     Ni2359   1.912       .  S
O2337     Ni2353   1.902       .  S
O2337      H2360   0.967       .  S
C2338      O2355   1.266       .  A
C2338      O2347   1.273       .  A
O2339     Ni2358   1.939       .  S
O2339      C2345   1.276       .  A
O2340     Ni2358   1.918       .  S
O2340      C2342   1.270       .  A
Ni2341     O2344   1.947       .  S
Ni2341     O2346   1.912       .  S
C2342      O2352   1.278       .  A
O2343     Ni2359   1.879       .  S
O2343      C2349   1.271       .  A
O2344      C2349   1.275       .  A
O2346      C2348   1.267       .  A
O2347     Ni2358   1.948       .  S
C2348      O2354   1.276       .  A
H2350      O2351   0.967       .  S
O2351     Ni2359   1.913       .  S
O2351     Ni2353   1.918       .  S
O2351     Ni2358   1.940       .  S
O2352     Ni2353   1.962       .  S
Ni2353     O2357   1.924       .  S
Ni2353     O2355   1.876       .  S
O2354     Ni2359   1.956       .  S
C2356      O2357   1.267       .  A
C2361      C2362   1.412       .  A
C2361      C2366   1.400       .  A
C2361      F2368   1.357       .  S
C2362      C2363   1.410       .  A
C2363      C2364   1.415       .  A
C2363      F2370   1.356       .  S
C2364      C2365   1.411       .  A
C2364      F2369   1.356       .  S
C2365      C2366   1.404       .  A
C2366      F2367   1.357       .  S
C2371      C2372   1.418       .  A
C2371      C2376   1.407       .  A
C2371      F2378   1.356       .  S
C2372      C2373   1.411       .  A
C2373      C2374   1.399       .  A
C2373      F2380   1.357       .  S
C2374      C2375   1.408       .  A
C2374      F2379   1.358       .  S
C2375      C2376   1.402       .  A
C2376      F2377   1.357       .  S
C2381      C2382   1.407       .  A
C2381      C2386   1.394       .  A
C2381      F2388   1.358       .  S
C2382      C2383   1.407       .  A
C2383      C2384   1.385       .  A
C2383      F2390   1.358       .  S
C2384      C2385   1.408       .  A
C2384      F2389   1.358       .  S
C2385      C2386   1.401       .  A
C2386      F2387   1.355       .  S
C2391      C2392   1.400       .  A
C2391      C2396   1.404       .  A
C2391      F2398   1.357       .  S
C2392      C2393   1.415       .  A
C2393      C2394   1.403       .  A
C2393      F2400   1.357       .  S
C2394      C2395   1.400       .  A
C2394      F2399   1.357       .  S
C2395      C2396   1.408       .  A
C2396      F2397   1.357       .  S
C2401      C2402   1.414       .  A
C2401      C2406   1.399       .  A
C2401      F2408   1.356       .  S
C2402      C2403   1.421       .  A
C2403      C2404   1.402       .  A
C2403      F2410   1.357       .  S
C2404      C2405   1.403       .  A
C2404      F2409   1.356       .  S
C2405      C2406   1.409       .  A
C2406      F2407   1.358       .  S
C2411      C2412   1.413       .  A
C2411      C2416   1.406       .  A
C2411      F2418   1.356       .  S
C2412      C2413   1.417       .  A
C2413      C2414   1.401       .  A
C2413      F2420   1.357       .  S
C2414      C2415   1.408       .  A
C2414      F2419   1.357       .  S
C2415      C2416   1.403       .  A
C2416      F2417   1.355       .  S
C2421      C2422   1.414   1_554  A
C2421      C2426   1.407       .  A
C2421      F2428   1.357       .  S
C2422      C2423   1.407       .  A
C2422      C2520   1.497       .  S
C2423      C2424   1.396   1_556  A
C2424      C2425   1.409       .  A
C2425      C2426   1.407       .  A
C2426      F2427   1.357       .  S
C2431      C2932   1.405       .  A
C2431      F2438   1.358       .  S
C2432      C2433   1.413       .  A
C2433      C2930   1.416   1_554  A
C2433      F2440   1.356   1_655  S
C2434      C2929   1.416       .  A
C2434      C2435   1.410       .  A
C2434      F2439   1.356   1_655  S
C2436      C2927   1.405       .  A
C2436      F2437   1.357       .  S
C2441      C2446   1.407       .  A
C2441      F2448   1.356   1_655  S
C2442      N2998   1.458       .  S
C2443      C2444   1.402       .  A
C2444      C2445   1.408       .  A
C2444      F2449   1.358       .  S
C2445      C3438   1.404       .  A
C2446      C3437   1.404   1_565  A
C2446      F2447   1.356       .  S
C2451      C2452   1.402       .  A
C2451      F2458   1.355       .  S
C2452      C3445   1.411       .  A
C2453      C3444   1.411   1_545  A
C2453      F2460   1.358       .  S
C2454      C3447   1.414   1_545  A
C2454      F2459   1.356       .  S
C2455      C3446   1.414       .  A
C2455      C2456   1.420       .  A
C2456      F2457   1.357       .  S
C2461      C2958   1.409       .  A
C2461      C2466   1.383       .  A
C2461      F2468   1.358       .  S
C2462      C2957   1.409       .  A
C2462      C2463   1.401   1_554  A
C2463      C2464   1.394       .  A
C2463      F2470   1.357       .  S
C2464      C3457   1.406       .  A
C2464      F2469   1.357       .  S
C2465      C3456   1.406   1_545  A
C2465      C3954   1.406   1_556  A
C2466      C3953   1.407       .  A
C2466      F3459   1.358       .  S
F2467      C3458   1.358       .  S
C2471      C2968   1.419       .  A
C2471      C3468   1.401   1_545  A
C2471      F2478   1.357       .  S
C2472      C2967   1.419       .  A
C2472      C2473   1.403   1_556  A
C2473      C3466   1.405   1_545  A
C2473      F2480   1.357       .  S
C2474      C3465   1.405       .  A
C2474      C2475   1.410   1_554  A
C2474      F2479   1.358       .  S
C2475      N2481   1.443       .  S
C2475      C2972   1.398       .  A
C2476      C3463   1.401       .  A
C2476      C2971   1.398       .  A
C2476      F2477   1.357       .  S
N2481      C2485   1.358       .  A
C2482      C2483   1.381       .  A
C2482      C2808   1.462       .  S
C2483      H2486   1.083       .  S
C2484      C2485   1.379       .  A
C2484      H2487   1.081       .  S
C2485      C2666   1.467       .  S
N2488      C2492   1.359       .  A
N2488      C2489   1.357       .  A
C2489      C2490   1.382       .  A
C2489      C2961   1.467       .  S
C2490      C2491   1.362       .  A
C2490      H2493   1.082       .  S
C2491      C2492   1.382       .  A
C2491      H2494   1.083       .  S
C2492      C2760   1.478       .  S
N2495      C3491   1.372       .  A
N2495      C2496   1.364       .  A
N2495      C2789   1.446       .  S
C2496      C3489   1.381       .  A
C2496      C2948   1.492       .  S
C2497      C3488   1.381   1_545  A
C2497      C2498   1.370       .  A
C2497      H2500   1.082       .  S
C2498      C2499   1.390       .  A
C2498      H2501   1.082       .  S
C2499      N3487   1.372   1_545  A
C2499      C2742   1.499       .  S
N2502      C3498   1.362       .  A
N2502      C2503   1.362   1_565  A
N2502      C3930   1.458   1_565  S
C2503      C2504   1.379   1_545  A
C2503      C2607   1.482       .  S
C2504      C3497   1.371       .  A
C2504      H2507   1.083   1_565  S
C2505      C3496   1.371       .  A
C2505      C2506   1.388       .  A
C2505      H2508   1.083       .  S
C2506      N3494   1.362       .  A
C2506      C2662   1.475       .  S
N2509      C2510   1.363       .  A
N2509      C2928   1.457       .  S
C2510      C2511   1.375       .  A
C2510      C2793   1.444       .  S
C2511      C2512   1.359   1_655  A
C2511      H2514   1.083       .  S
C2513      C2826   1.455       .  S
N2516      C2520   1.362       .  A
N2516      C2517   1.387       .  A
N2516      C2633   1.478       .  S
C2518      H2521   1.083       .  S
C2519      C2520   1.380       .  A
N2523      C2527   1.345       .  A
N2523      C2958   1.428       .  S
C2524      C2525   1.384       .  A
C2524      C2713   1.449       .  S
C2525      H2528   1.082       .  S
C2526      C2527   1.377       .  A
C2526      H2529   1.078       .  S
C2527      C2792   1.466       .  S
N2530      C2531   1.355       .  A
N2530      C2968   1.451       .  S
C2531      C2532   1.379       .  A
C2531      C2845   1.462       .  S
C2532      H2535   1.082       .  S
C2533      C2534   1.374       .  A
C2533      H2536   1.075       .  S
C2534      C2593   1.451       .  S
N2537      C3533   1.371       .  A
N2537      C2538   1.362       .  A
N2537      C2941   1.448       .  S
C2538      C2539   1.386       .  A
C2538      C2727   1.490       .  S
C2539      C3532   1.357       .  A
C2539      H2542   1.081       .  S
C2540      C3531   1.357       .  A
C2540      C2541   1.378   1_565  A
C2540      H2543   1.083   1_565  S
C2541      N3529   1.371   1_545  A
C2541      C2647   1.477       .  S
N2544      C2548   1.369       .  A
N2544      C3537   1.364       .  A
N2544      C2951   1.464       .  S
C2545      N3536   1.365   1_545  A
C2545      C2546   1.382       .  A
C2545      C2844   1.491       .  S
C2546      C3539   1.369   1_545  A
C2546      H2549   1.076       .  S
C2547      C3538   1.369       .  A
C2547      C2548   1.379       .  A
C2547      H2550   1.083       .  S
C2548      C2812   1.477       .  S
N2551      C2552   1.361       .  A
N2551      C2931   1.463       .  S
C2552      C2553   1.371       .  A
C2552      C2709   1.448       .  S
C2553      C2554   1.354       .  A
C2553      H2556   1.083       .  S
C2555      C2680   1.470       .  S
N2558      C2562   1.359       .  A
N2558      C2559   1.367       .  A
N2558      C2921   1.446       .  S
C2559      C2560   1.383       .  A
C2560      C2561   1.368       .  A
C2561      C2562   1.383       .  A
C2561      H2564   1.083       .  S
C2562      C2746   1.475       .  S
N2565      C2569   1.362       .  A
N2565      C2566   1.362       .  A
N2565      C2908   1.459       .  S
C2566      C2567   1.388       .  A
C2566      C2673   1.472       .  S
C2567      C2568   1.371       .  A
C2567      H2570   1.082       .  S
C2568      C2569   1.377       .  A
C2568      H2571   1.082       .  S
C2569      C2596   1.479       .  S
N2572      C2576   1.370       .  A
N2572      C2573   1.365       .  A
N2572      C2898   1.466       .  S
C2573      C2574   1.382       .  A
C2573      C2838   1.494       .  S
C2574      C2575   1.368       .  A
C2574      H2577   1.074       .  S
C2575      C2576   1.378       .  A
C2575      H2578   1.083       .  S
C2576      C2818   1.475       .  S
N2579      C2583   1.353       .  A
N2579      C2580   1.350       .  A
N2579      C2888   1.445       .  S
C2580      C2581   1.377       .  A
C2580      C2834   1.456       .  S
C2581      C2582   1.352       .  A
C2581      H2584   1.081       .  S
C2582      C2583   1.377       .  A
C2582      H2585   1.075       .  S
C2583      C2599   1.450       .  S
O2586     Ni2592   1.948       .  S
O2586      C2607   1.278       .  A
O2587     Ni2610   1.891       .  S
O2587      C2596   1.262       .  A
O2588     Ni2592   1.923       .  S
O2588     Ni2610   1.913       .  S
O2588     Ni2604   1.950       .  S
O2588      H2611   0.966       .  S
C2589      O2606   1.281       .  A
C2589      O2598   1.281       .  A
O2590     Ni2609   1.948       .  S
O2590      C2596   1.278       .  A
O2591     Ni2609   1.910       .  S
O2591      C2593   1.272       .  A
Ni2592     O2595   1.971       .  S
Ni2592     O2597   1.907       .  S
C2593      O2603   1.267       .  A
O2594     Ni2610   1.956       .  S
O2594      C2600   1.282       .  A
O2595      C2600   1.279       .  A
O2597      C2599   1.273       .  A
O2598     Ni2609   1.978       .  S
C2599      O2605   1.263       .  A
C2600      C2620   1.529       .  S
H2601      O2602   0.966       .  S
O2602     Ni2610   1.953       .  S
O2602     Ni2604   1.912       .  S
O2602     Ni2609   1.924       .  S
O2603     Ni2604   1.920       .  S
Ni2604     O2608   1.897       .  S
Ni2604     O2606   1.956       .  S
O2605     Ni2610   1.913       .  S
C2607      O2608   1.263       .  A
N2612      C2616   1.360       .  A
N2612      C2613   1.359       .  A
N2612      C2640   1.457       .  S
C2613      C2614   1.383       .  A
C2613      C2878   1.471       .  S
C2614      C2615   1.359       .  A
C2614      H2617   1.082       .  S
C2615      C2616   1.381       .  A
C2615      H2618   1.083       .  S
C2616      C2749   1.478       .  S
N2619      C2623   1.362       .  A
N2619      C2620   1.384       .  A
N2619      C2639   1.471       .  S
C2620      C2621   1.389       .  A
C2621      C2622   1.371       .  A
C2621      H2624   1.082       .  S
C2622      C2623   1.383       .  A
C2622      H2625   1.081       .  S
C2623      C2868   1.506       .  S
O2626     Ni2632   1.907       .  S
O2626      C2647   1.274       .  A
O2627     Ni2650   1.927       .  S
O2627      C2636   1.267       .  A
O2628     Ni2632   1.907       .  S
O2628     Ni2650   1.898       .  S
O2628     Ni2644   1.940       .  S
O2628      H2651   0.966       .  S
C2629      O2646   1.291       .  A
C2629      O2638   1.281       .  A
O2630     Ni2649   1.907       .  S
O2630      C2636   1.278       .  A
O2631     Ni2649   1.961       .  S
O2631      C2633   1.279       .  A
Ni2632     O2635   1.927       .  S
Ni2632     O2637   1.945       .  S
C2633      O2643   1.278       .  A
O2634     Ni2650   1.956       .  S
O2634      C2640   1.294       .  A
O2635      C2640   1.282       .  A
C2636      C2689   1.484       .  S
O2637      C2639   1.274       .  A
O2638     Ni2649   1.930       .  S
C2639      O2645   1.278       .  A
H2641      O2642   0.966       .  S
O2642     Ni2650   1.944       .  S
O2642     Ni2644   1.894       .  S
O2642     Ni2649   1.906       .  S
O2643     Ni2644   1.965       .  S
Ni2644     O2648   1.922       .  S
Ni2644     O2646   1.949       .  S
O2645     Ni2650   1.962       .  S
C2647      O2648   1.264       .  A
N2652      C2656   1.356       .  A
N2652      C2653   1.356       .  A
N2652      C2891   1.442       .  S
C2653      C2654   1.383       .  A
C2653      C2819   1.464       .  S
C2654      C2655   1.370       .  A
C2654      H2657   1.083       .  S
C2655      C2656   1.377       .  A
C2655      H2658   1.082       .  S
C2656      C2672   1.464       .  S
O2659     Ni2665   1.898       .  S
O2659      C2680   1.272       .  A
O2660     Ni2683   1.914       .  S
O2660      C2669   1.273       .  A
O2661     Ni2665   1.916       .  S
O2661     Ni2683   1.919       .  S
O2661     Ni2677   1.922       .  S
O2661      H2684   0.962       .  S
C2662      O2679   1.269       .  A
C2662      O2671   1.260       .  A
O2663     Ni2682   1.915       .  S
O2663      C2669   1.275       .  A
O2664     Ni2682   1.898       .  S
O2664      C2666   1.270       .  A
Ni2665     O2668   1.903       .  S
Ni2665     O2670   1.896       .  S
C2666      O2676   1.287       .  A
O2667     Ni2683   1.942       .  S
O2667      C2673   1.265       .  A
O2668      C2673   1.255       .  A
C2669      C2696   1.468       .  S
O2670      C2672   1.271       .  A
O2671     Ni2682   1.912       .  S
C2672      O2678   1.288       .  A
H2674      O2675   0.974       .  S
O2675     Ni2683   1.913       .  S
O2675     Ni2677   1.922       .  S
O2675     Ni2682   1.916       .  S
O2676     Ni2677   1.972       .  S
Ni2677     O2681   1.929       .  S
Ni2677     O2679   1.943       .  S
O2678     Ni2683   1.974       .  S
C2680      O2681   1.278       .  A
N2685      C2689   1.371       .  A
N2685      C2686   1.366       .  A
N2685      C2911   1.448       .  S
C2686      C2687   1.387       .  A
C2686      C2716   1.495       .  S
C2687      C2688   1.361       .  A
C2687      H2690   1.083       .  S
C2688      C2689   1.378       .  A
C2688      H2691   1.083       .  S
N2692      C2696   1.362       .  A
N2692      C2693   1.361       .  A
N2692      C2858   1.455       .  S
C2693      C2694   1.375       .  A
C2693      C2720   1.458       .  S
C2694      C2695   1.357       .  A
C2694      H2697   1.083       .  S
C2695      C2696   1.385       .  A
C2695      H2698   1.083       .  S
N2699      C2703   1.347       .  A
N2699      C2700   1.352       .  A
N2699      C2881   1.429       .  S
C2700      C2701   1.382       .  A
C2700      C2719   1.457       .  S
C2701      C2702   1.369       .  A
C2701      H2704   1.082       .  S
C2702      C2703   1.378       .  A
C2702      H2705   1.077       .  S
C2703      C2786   1.465       .  S
O2706     Ni2712   1.887       .  S
O2706      C2727   1.255       .  A
O2707     Ni2730   1.949       .  S
O2707      C2716   1.262       .  A
O2708     Ni2712   1.904       .  S
O2708     Ni2730   1.914       .  S
O2708     Ni2724   1.942       .  S
O2708      H2731   0.967       .  S
C2709      O2726   1.291       .  A
C2709      O2718   1.273       .  A
O2710     Ni2729   1.876       .  S
O2710      C2716   1.255       .  A
O2711     Ni2729   1.872       .  S
O2711      C2713   1.258       .  A
Ni2712     O2715   1.944       .  S
Ni2712     O2717   1.876       .  S
C2713      O2723   1.264       .  A
O2714     Ni2730   1.913       .  S
O2714      C2720   1.287       .  A
O2715      C2720   1.283       .  A
O2717      C2719   1.247       .  A
O2718     Ni2729   1.883       .  S
C2719      O2725   1.258       .  A
H2721      O2722   0.966       .  S
O2722     Ni2730   1.945       .  S
O2722     Ni2724   1.915       .  S
O2722     Ni2729   1.901       .  S
O2723     Ni2724   1.916       .  S
Ni2724     O2728   1.951       .  S
Ni2724     O2726   1.952       .  S
O2725     Ni2730   1.926       .  S
C2727      O2728   1.266       .  A
N2732      C2736   1.359       .  A
N2732      C2733   1.366       .  A
N2732      C2871   1.445       .  S
C2733      C2734   1.384       .  A
C2733      C2852   1.489       .  S
C2734      C2735   1.367       .  A
C2734      H2737   1.083       .  S
C2735      C2736   1.383       .  A
C2735      H2738   1.083       .  S
C2736      C2752   1.478       .  S
O2739     Ni2745   1.905       .  S
O2739      C2760   1.270       .  A
O2740     Ni2763   1.953       .  S
O2740      C2749   1.286       .  A
O2741     Ni2745   1.914       .  S
O2741     Ni2763   1.934       .  S
O2741     Ni2757   1.926       .  S
O2741      H2764   0.966       .  S
C2742      O2759   1.274       .  A
C2742      O2751   1.254       .  A
O2743     Ni2762   1.897       .  S
O2743      C2749   1.269       .  A
O2744     Ni2762   1.887       .  S
O2744      C2746   1.272       .  A
Ni2745     O2748   1.903       .  S
Ni2745     O2750   1.892       .  S
C2746      O2756   1.289       .  A
O2747     Ni2763   1.979       .  S
O2747      C2753   1.276       .  A
O2748      C2753   1.258       .  A
O2750      C2752   1.273       .  A
O2751     Ni2762   1.897       .  S
C2752      O2758   1.289       .  A
C2753      C2776   1.506       .  S
H2754      O2755   0.966       .  S
O2755     Ni2763   1.932       .  S
O2755     Ni2757   1.935       .  S
O2755     Ni2762   1.916       .  S
O2756     Ni2757   1.983       .  S
Ni2757     O2761   1.947       .  S
Ni2757     O2759   1.978       .  S
O2758     Ni2763   1.984       .  S
C2760      O2761   1.284       .  A
N2765      C2769   1.351       .  A
N2765      C2766   1.360       .  A
N2765      C2861   1.452       .  S
C2766      C2767   1.375       .  A
C2766      C2782   1.446       .  S
C2767      C2768   1.363       .  A
C2767      H2770   1.083       .  S
C2768      C2769   1.386       .  A
C2768      H2771   1.078       .  S
C2769      C2815   1.455       .  S
N2772      C2776   1.374       .  A
N2772      C2773   1.363       .  A
N2772      C2800   1.449       .  S
C2773      C2774   1.379       .  A
C2773      C2901   1.491       .  S
C2774      C2775   1.371       .  A
C2774      H2777   1.082       .  S
C2775      C2776   1.392       .  A
C2775      H2778   1.083       .  S
O2779     Ni2785   1.926       .  S
O2779      C2800   1.275       .  A
O2780     Ni2803   1.938       .  S
O2780      C2789   1.273       .  A
O2781     Ni2785   1.925       .  S
O2781     Ni2803   1.921       .  S
O2781     Ni2797   1.896       .  S
O2781      H2804   0.966       .  S
C2782      O2799   1.272       .  A
C2782      O2791   1.254       .  A
O2783     Ni2802   1.903       .  S
O2783      C2789   1.269       .  A
O2784     Ni2802   1.912       .  S
O2784      C2786   1.272       .  A
Ni2785     O2788   1.917       .  S
Ni2785     O2790   1.919       .  S
C2786      O2796   1.274       .  A
O2787     Ni2803   1.905       .  S
O2787      C2793   1.279       .  A
O2788      C2793   1.265       .  A
O2790      C2792   1.271       .  A
O2791     Ni2802   1.907       .  S
C2792      O2798   1.263       .  A
H2794      O2795   0.966       .  S
O2795     Ni2803   1.920       .  S
O2795     Ni2797   1.934       .  S
O2795     Ni2802   1.928       .  S
O2796     Ni2797   1.943       .  S
Ni2797     O2801   1.935       .  S
Ni2797     O2799   1.913       .  S
O2798     Ni2803   1.921       .  S
C2800      O2801   1.272       .  A
O2805     Ni2811   1.893       .  S
O2805      C2826   1.259       .  A
O2806     Ni2829   1.911       .  S
O2806      C2815   1.261       .  A
O2807     Ni2811   1.914       .  S
O2807     Ni2829   1.894       .  S
O2807     Ni2823   1.947       .  S
O2807      H2830   0.966       .  S
C2808      O2825   1.275       .  A
C2808      O2817   1.278       .  A
O2809     Ni2828   1.890       .  S
O2809      C2815   1.260       .  A
O2810     Ni2828   1.890       .  S
O2810      C2812   1.261       .  A
Ni2811     O2814   1.940       .  S
Ni2811     O2816   1.888       .  S
C2812      O2822   1.276       .  A
O2813     Ni2829   1.901       .  S
O2813      C2819   1.273       .  A
O2814      C2819   1.279       .  A
O2816      C2818   1.261       .  A
O2817     Ni2828   1.934       .  S
C2818      O2824   1.276       .  A
H2820      O2821   0.967       .  S
O2821     Ni2829   1.942       .  S
O2821     Ni2823   1.890       .  S
O2821     Ni2828   1.911       .  S
O2822     Ni2823   1.953       .  S
Ni2823     O2827   1.912       .  S
Ni2823     O2825   1.904       .  S
O2824     Ni2829   1.952       .  S
C2826      O2827   1.259       .  A
O2831     Ni2837   1.938       .  S
O2831      C2852   1.273       .  A
O2832     Ni2855   1.922       .  S
O2832      C2841   1.268       .  A
O2833     Ni2837   1.935       .  S
O2833     Ni2855   1.912       .  S
O2833     Ni2849   1.902       .  S
O2833      H2856   0.967       .  S
C2834      O2851   1.266       .  A
C2834      O2843   1.273       .  A
O2835     Ni2854   1.939       .  S
O2835      C2841   1.276       .  A
O2836     Ni2854   1.918       .  S
O2836      C2838   1.270       .  A
Ni2837     O2840   1.947       .  S
Ni2837     O2842   1.912       .  S
C2838      O2848   1.278       .  A
O2839     Ni2855   1.880       .  S
O2839      C2845   1.271       .  A
O2840      C2845   1.275       .  A
O2842      C2844   1.267       .  A
O2843     Ni2854   1.948       .  S
C2844      O2850   1.276       .  A
H2846      O2847   0.967       .  S
O2847     Ni2855   1.913       .  S
O2847     Ni2849   1.918       .  S
O2847     Ni2854   1.940       .  S
O2848     Ni2849   1.962       .  S
Ni2849     O2853   1.924       .  S
Ni2849     O2851   1.876       .  S
O2850     Ni2855   1.957       .  S
C2852      O2853   1.267       .  A
C2857      C2858   1.412       .  A
C2857      C2862   1.400       .  A
C2857      F2864   1.357       .  S
C2858      C2859   1.410       .  A
C2859      C2860   1.415       .  A
C2859      F2866   1.356       .  S
C2860      C2861   1.411       .  A
C2860      F2865   1.356       .  S
C2861      C2862   1.404       .  A
C2862      F2863   1.357       .  S
C2867      C2868   1.418       .  A
C2867      C2872   1.407       .  A
C2867      F2874   1.356       .  S
C2868      C2869   1.411       .  A
C2869      C2870   1.399       .  A
C2869      F2876   1.357       .  S
C2870      C2871   1.408       .  A
C2870      F2875   1.358       .  S
C2871      C2872   1.402       .  A
C2872      F2873   1.357       .  S
C2877      C2878   1.407       .  A
C2877      C2882   1.394       .  A
C2877      F2884   1.358       .  S
C2878      C2879   1.406       .  A
C2879      C2880   1.385       .  A
C2879      F2886   1.358       .  S
C2880      C2881   1.408       .  A
C2880      F2885   1.358       .  S
C2881      C2882   1.402       .  A
C2882      F2883   1.355       .  S
C2887      C2888   1.400       .  A
C2887      C2892   1.404       .  A
C2887      F2894   1.357       .  S
C2888      C2889   1.415       .  A
C2889      C2890   1.403       .  A
C2889      F2896   1.357       .  S
C2890      C2891   1.400       .  A
C2890      F2895   1.357       .  S
C2891      C2892   1.408       .  A
C2892      F2893   1.357       .  S
C2897      C2898   1.414       .  A
C2897      C2902   1.400       .  A
C2897      F2904   1.356       .  S
C2898      C2899   1.421       .  A
C2899      C2900   1.402       .  A
C2899      F2906   1.357       .  S
C2900      C2901   1.403       .  A
C2900      F2905   1.356       .  S
C2901      C2902   1.409       .  A
C2902      F2903   1.358       .  S
C2907      C2908   1.413       .  A
C2907      C2912   1.406       .  A
C2907      F2914   1.356       .  S
C2908      C2909   1.417       .  A
C2909      C2910   1.401       .  A
C2909      F2916   1.357       .  S
C2910      C2911   1.408       .  A
C2910      F2915   1.357       .  S
C2911      C2912   1.403       .  A
C2912      F2913   1.355       .  S
C2917      C2918   1.414       .  A
C2917      C2922   1.407       .  A
C2917      F2924   1.357       .  S
C2918      C2919   1.407       .  A
C2919      C2920   1.396       .  A
C2920      C2921   1.409       .  A
C2921      C2922   1.407       .  A
C2922      F2923   1.357       .  S
C2927      F2934   1.358       .  S
C2928      C2929   1.413       .  A
C2929      F2936   1.356   1_655  S
C2930      C2931   1.410       .  A
C2930      F2935   1.356   1_655  S
C2932      F2933   1.357   1_554  S
C2937      C2942   1.407       .  A
C2937      F2944   1.356   1_655  S
C2938      N3494   1.458       .  S
C2939      C2940   1.402       .  A
C2940      C2941   1.408       .  A
C2940      F2945   1.358       .  S
C2941      C3934   1.404       .  A
C2942      C3933   1.404   1_565  A
C2942      F2943   1.356       .  S
C2947      C2948   1.402       .  A
C2947      F2954   1.355       .  S
C2948      C3941   1.411       .  A
C2949      C3940   1.411   1_545  A
C2949      F2956   1.358       .  S
C2950      C3943   1.414   1_545  A
C2950      F2955   1.356       .  S
C2951      C3942   1.414       .  A
C2951      C2952   1.420       .  A
C2952      F2953   1.357       .  S
C2957      C2962   1.383       .  A
C2957      F2964   1.358       .  S
C2958      C2959   1.401       .  A
C2959      C2960   1.394       .  A
C2959      F2966   1.357       .  S
C2960      C3953   1.406       .  A
C2960      F2965   1.357       .  S
C2961      C3952   1.406   1_545  A
C2961      C3458   1.406       .  A
C2962      C3457   1.407   1_554  A
C2962      F3955   1.358       .  S
F2963      C3954   1.358       .  S
C2967      C3964   1.401   1_545  A
C2967      F2974   1.357       .  S
C2968      C2969   1.403       .  A
C2969      C3962   1.405   1_545  A
C2969      F2976   1.357       .  S
C2970      C3961   1.405       .  A
C2970      C2971   1.410       .  A
C2970      F2975   1.358       .  S
C2972      C3959   1.401       .  A
C2972      F2973   1.357       .  S
N2977      C2981   1.358       .  A
N2977      C3474   1.353       .  A
N2977      C3963   1.442       .  S
C2978      N3473   1.353   1_554  A
C2978      C2979   1.381       .  A
C2978      C3304   1.462       .  S
C2979      C3476   1.370   1_554  A
C2979      H2982   1.083       .  S
C2980      C3475   1.370       .  A
C2980      C2981   1.379       .  A
C2980      H2983   1.081       .  S
C2981      C3162   1.467       .  S
N2984      C2988   1.359   1_556  A
N2984      C2985   1.358       .  A
N2984      C3621   1.456       .  S
C2985      C2986   1.382       .  A
C2985      C3457   1.468       .  S
C2986      C2987   1.362   1_556  A
C2986      H2989   1.083       .  S
C2987      C2988   1.382       .  A
C2987      H2990   1.083       .  S
C2988      C3256   1.478       .  S
N2991      C2992   1.364       .  A
N2991      C3285   1.447       .  S
C2992      C3444   1.492       .  S
C2993      C2994   1.370       .  A
C2993      H2996   1.082       .  S
C2994      C2995   1.390       .  A
C2994      H2997   1.082       .  S
C2995      C3238   1.499       .  S
N2998      C2999   1.362       .  A
C2999      C3000   1.378       .  A
C2999      C3103   1.482       .  S
C3000      H3003   1.083       .  S
C3001      C3002   1.388       .  A
C3001      H3004   1.083       .  S
C3002      C3158   1.475       .  S
N3005      C3006   1.363       .  A
N3005      C3424   1.457       .  S
C3006      C3007   1.375       .  A
C3006      C3289   1.444       .  S
C3007      C3008   1.358   1_655  A
C3007      H3010   1.083       .  S
C3009      C3322   1.454       .  S
N3012      C3016   1.362       .  A
N3012      C3013   1.387       .  A
N3012      C3129   1.478       .  S
C3014      H3017   1.083       .  S
C3015      C3016   1.380       .  A
C3016      C3910   1.497       .  S
N3019      C3023   1.346       .  A
N3019      C3516   1.347   1_554  A
N3019      C3454   1.429       .  S
C3020      N3515   1.347       .  A
C3020      C3021   1.384       .  A
C3020      C3209   1.448       .  S
C3021      C3518   1.371       .  A
C3021      H3024   1.082       .  S
C3022      C3517   1.371   1_554  A
C3022      C3023   1.377       .  A
C3022      H3025   1.078       .  S
C3023      C3288   1.466       .  S
N3026      C3526   1.358   1_554  A
N3026      C3027   1.355       .  A
N3026      C3464   1.451   1_554  S
C3027      C3028   1.379       .  A
C3027      C3341   1.462       .  S
C3028      C3525   1.349   1_554  A
C3028      H3031   1.082       .  S
C3029      C3524   1.349       .  A
C3029      C3030   1.374       .  A
C3029      H3032   1.075       .  S
C3030      N3522   1.358       .  A
C3030      C3089   1.451       .  S
N3033      C3034   1.362       .  A
N3033      C3437   1.448   1_565  S
C3034      C3035   1.386       .  A
C3034      C3223   1.489       .  S
C3035      H3038   1.081       .  S
C3036      C3037   1.378       .  A
C3036      H3039   1.083       .  S
C3037      C3143   1.478       .  S
N3040      C3044   1.369       .  A
N3040      C3447   1.464       .  S
C3041      C3042   1.382       .  A
C3041      C3340   1.490       .  S
C3042      H3045   1.076       .  S
C3043      C3044   1.379       .  A
C3043      H3046   1.083       .  S
C3044      C3308   1.477       .  S
N3047      C3048   1.361       .  A
N3047      C3427   1.462       .  S
C3048      C3049   1.371       .  A
C3048      C3205   1.448       .  S
C3049      C3050   1.354       .  A
C3049      H3052   1.083       .  S
C3051      C3176   1.470       .  S
N3054      C3058   1.359       .  A
N3054      C3055   1.366       .  A
N3054      C3417   1.446       .  S
C3055      C3056   1.383       .  A
C3056      C3057   1.368       .  A
C3057      C3058   1.384       .  A
C3057      H3060   1.083       .  S
C3058      C3242   1.475       .  S
N3061      C3065   1.362       .  A
N3061      C3062   1.361       .  A
N3061      C3404   1.459       .  S
C3062      C3063   1.387       .  A
C3062      C3169   1.472       .  S
C3063      C3064   1.370       .  A
C3063      H3066   1.082       .  S
C3064      C3065   1.377       .  A
C3064      H3067   1.082       .  S
C3065      C3092   1.479       .  S
N3068      C3072   1.369       .  A
N3068      C3069   1.364       .  A
N3068      C3394   1.466       .  S
C3069      C3070   1.382       .  A
C3069      C3334   1.493       .  S
C3070      C3071   1.368       .  A
C3070      H3073   1.074       .  S
C3071      C3072   1.378       .  A
C3071      H3074   1.083       .  S
C3072      C3314   1.474       .  S
N3075      C3079   1.353       .  A
N3075      C3076   1.349       .  A
N3075      C3384   1.445       .  S
C3076      C3077   1.377       .  A
C3076      C3330   1.454       .  S
C3077      C3078   1.351       .  A
C3077      H3080   1.081       .  S
C3078      C3079   1.377       .  A
C3078      H3081   1.075       .  S
C3079      C3095   1.449       .  S
O3082     Ni3088   1.947       .  S
O3082      C3103   1.278       .  A
O3083     Ni3106   1.889       .  S
O3083      C3092   1.261       .  A
O3084     Ni3088   1.923       .  S
O3084     Ni3106   1.912       .  S
O3084     Ni3100   1.951       .  S
O3084      H3107   0.966       .  S
C3085      O3102   1.281       .  A
C3085      O3094   1.281       .  A
O3086     Ni3105   1.949       .  S
O3086      C3092   1.278       .  A
O3087     Ni3105   1.910       .  S
O3087      C3089   1.272       .  A
Ni3088     O3091   1.971       .  S
Ni3088     O3093   1.907       .  S
C3089      O3099   1.267       .  A
O3090     Ni3106   1.955       .  S
O3090      C3096   1.282       .  A
O3091      C3096   1.279       .  A
O3093      C3095   1.273       .  A
O3094     Ni3105   1.979       .  S
C3095      O3101   1.263       .  A
C3096      C3116   1.529       .  S
H3097      O3098   0.966       .  S
O3098     Ni3106   1.952       .  S
O3098     Ni3100   1.912       .  S
O3098     Ni3105   1.923       .  S
O3099     Ni3100   1.921       .  S
Ni3100     O3104   1.897       .  S
Ni3100     O3102   1.956       .  S
O3101     Ni3106   1.912       .  S
C3103      O3104   1.263       .  A
N3108      C3112   1.360       .  A
N3108      C3109   1.359       .  A
N3108      C3136   1.457       .  S
C3109      C3110   1.383       .  A
C3109      C3374   1.471       .  S
C3110      C3111   1.358       .  A
C3110      H3113   1.082       .  S
C3111      C3112   1.381       .  A
C3111      H3114   1.083       .  S
C3112      C3245   1.477       .  S
N3115      C3119   1.362       .  A
N3115      C3116   1.384       .  A
N3115      C3135   1.471       .  S
C3116      C3117   1.389       .  A
C3117      C3118   1.371       .  A
C3117      H3120   1.082       .  S
C3118      C3119   1.383       .  A
C3118      H3121   1.081       .  S
C3119      C3364   1.505       .  S
O3122     Ni3128   1.908       .  S
O3122      C3143   1.275       .  A
O3123     Ni3146   1.928       .  S
O3123      C3132   1.267       .  A
O3124     Ni3128   1.907       .  S
O3124     Ni3146   1.898       .  S
O3124     Ni3140   1.940       .  S
O3124      H3147   0.966       .  S
C3125      N3480   1.456       .  S
C3125      O3142   1.292       .  A
C3125      O3134   1.281       .  A
O3126     Ni3145   1.907       .  S
O3126      C3132   1.278       .  A
O3127     Ni3145   1.961       .  S
O3127      C3129   1.279       .  A
Ni3128     O3131   1.928       .  S
Ni3128     O3133   1.946       .  S
C3129      O3139   1.278       .  A
O3130     Ni3146   1.955       .  S
O3130      C3136   1.293       .  A
O3131      C3136   1.282       .  A
C3132      C3185   1.484       .  S
O3133      C3135   1.274       .  A
O3134     Ni3145   1.930       .  S
C3135      O3141   1.278       .  A
H3137      O3138   0.966       .  S
O3138     Ni3146   1.944       .  S
O3138     Ni3140   1.894       .  S
O3138     Ni3145   1.905       .  S
O3139     Ni3140   1.965       .  S
Ni3140     O3144   1.922       .  S
Ni3140     O3142   1.951       .  S
O3141     Ni3146   1.961       .  S
C3143      O3144   1.264       .  A
N3148      C3152   1.356       .  A
N3148      C3149   1.356       .  A
N3148      C3387   1.441       .  S
C3149      C3150   1.384       .  A
C3149      C3315   1.464       .  S
C3150      C3151   1.371       .  A
C3150      H3153   1.083       .  S
C3151      C3152   1.377       .  A
C3151      H3154   1.082       .  S
C3152      C3168   1.465       .  S
O3155     Ni3161   1.897       .  S
O3155      C3176   1.272       .  A
O3156     Ni3179   1.914       .  S
O3156      C3165   1.273       .  A
O3157     Ni3161   1.916       .  S
O3157     Ni3179   1.920       .  S
O3157     Ni3173   1.922       .  S
O3157      H3180   0.962       .  S
C3158      O3175   1.269       .  A
C3158      O3167   1.260       .  A
O3159     Ni3178   1.915       .  S
O3159      C3165   1.275       .  A
O3160     Ni3178   1.899       .  S
O3160      C3162   1.270       .  A
Ni3161     O3164   1.903       .  S
Ni3161     O3166   1.897       .  S
C3162      O3172   1.287       .  A
O3163     Ni3179   1.940       .  S
O3163      C3169   1.265       .  A
O3164      C3169   1.256       .  A
C3165      C3192   1.469       .  S
O3166      C3168   1.271       .  A
O3167     Ni3178   1.912       .  S
C3168      O3174   1.288       .  A
H3170      O3171   0.974       .  S
O3171     Ni3179   1.911       .  S
O3171     Ni3173   1.922       .  S
O3171     Ni3178   1.915       .  S
O3172     Ni3173   1.972       .  S
Ni3173     O3177   1.929       .  S
Ni3173     O3175   1.943       .  S
O3174     Ni3179   1.974       .  S
C3176      O3177   1.278       .  A
N3181      C3185   1.371       .  A
N3181      C3182   1.366       .  A
N3181      C3407   1.448       .  S
C3182      C3183   1.387       .  A
C3182      C3212   1.495       .  S
C3183      C3184   1.360       .  A
C3183      H3186   1.083       .  S
C3184      C3185   1.378       .  A
C3184      H3187   1.083       .  S
N3188      C3192   1.362       .  A
N3188      C3189   1.362       .  A
N3188      C3354   1.455       .  S
C3189      C3190   1.374       .  A
C3189      C3216   1.458       .  S
C3190      C3191   1.357       .  A
C3190      H3193   1.083       .  S
C3191      C3192   1.385       .  A
C3191      H3194   1.083       .  S
N3195      C3199   1.347       .  A
N3195      C3196   1.352       .  A
N3195      C3377   1.428       .  S
C3196      C3197   1.382       .  A
C3196      C3215   1.457       .  S
C3197      C3198   1.369       .  A
C3197      H3200   1.082       .  S
C3198      C3199   1.378       .  A
C3198      H3201   1.076       .  S
C3199      C3282   1.465       .  S
O3202     Ni3208   1.887       .  S
O3202      C3223   1.255       .  A
O3203     Ni3226   1.948       .  S
O3203      C3212   1.262       .  A
O3204     Ni3208   1.903       .  S
O3204     Ni3226   1.915       .  S
O3204     Ni3220   1.941       .  S
O3204      H3227   0.967       .  S
C3205      O3222   1.291       .  A
C3205      O3214   1.273       .  A
O3206     Ni3225   1.876       .  S
O3206      C3212   1.255       .  A
O3207     Ni3225   1.873       .  S
O3207      C3209   1.258       .  A
Ni3208     O3211   1.945       .  S
Ni3208     O3213   1.877       .  S
C3209      O3219   1.263       .  A
O3210     Ni3226   1.912       .  S
O3210      C3216   1.288       .  A
O3211      C3216   1.283       .  A
O3213      C3215   1.247       .  A
O3214     Ni3225   1.883       .  S
C3215      O3221   1.258       .  A
H3217      O3218   0.966       .  S
O3218     Ni3226   1.945       .  S
O3218     Ni3220   1.915       .  S
O3218     Ni3225   1.901       .  S
O3219     Ni3220   1.914       .  S
Ni3220     O3224   1.950       .  S
Ni3220     O3222   1.952       .  S
O3221     Ni3226   1.926       .  S
C3223      O3224   1.266       .  A
N3228      C3232   1.359       .  A
N3228      C3229   1.366       .  A
N3228      C3367   1.445       .  S
C3229      C3230   1.384       .  A
C3229      C3348   1.490       .  S
C3230      C3231   1.367       .  A
C3230      H3233   1.083       .  S
C3231      C3232   1.383       .  A
C3231      H3234   1.083       .  S
C3232      C3248   1.477       .  S
O3235     Ni3241   1.905       .  S
O3235      C3256   1.270       .  A
O3236     Ni3259   1.952       .  S
O3236      C3245   1.285       .  A
O3237     Ni3241   1.913       .  S
O3237     Ni3259   1.934       .  S
O3237     Ni3253   1.926       .  S
O3237      H3260   0.966       .  S
C3238      O3255   1.274       .  A
C3238      O3247   1.253       .  A
O3239     Ni3258   1.897       .  S
O3239      C3245   1.269       .  A
O3240     Ni3258   1.887       .  S
O3240      C3242   1.272       .  A
Ni3241     O3244   1.904       .  S
Ni3241     O3246   1.892       .  S
C3242      O3252   1.289       .  A
O3243     Ni3259   1.978       .  S
O3243      C3249   1.276       .  A
O3244      C3249   1.258       .  A
O3246      C3248   1.272       .  A
O3247     Ni3258   1.896       .  S
C3248      O3254   1.288       .  A
C3249      C3272   1.506       .  S
H3250      O3251   0.966       .  S
O3251     Ni3259   1.932       .  S
O3251     Ni3253   1.935       .  S
O3251     Ni3258   1.916       .  S
O3252     Ni3253   1.983       .  S
Ni3253     O3257   1.949       .  S
Ni3253     O3255   1.979       .  S
O3254     Ni3259   1.983       .  S
C3256      O3257   1.285       .  A
N3261      C3265   1.351       .  A
N3261      C3262   1.359       .  A
N3261      C3357   1.451       .  S
C3262      C3263   1.375       .  A
C3262      C3278   1.445       .  S
C3263      C3264   1.362       .  A
C3263      H3266   1.083       .  S
C3264      C3265   1.386       .  A
C3264      H3267   1.078       .  S
C3265      C3311   1.455       .  S
N3268      C3272   1.374       .  A
N3268      C3269   1.363       .  A
N3268      C3296   1.450       .  S
C3269      C3270   1.379       .  A
C3269      C3397   1.490       .  S
C3270      C3271   1.371       .  A
C3270      H3273   1.082       .  S
C3271      C3272   1.392       .  A
C3271      H3274   1.083       .  S
O3275     Ni3281   1.926       .  S
O3275      C3296   1.275       .  A
O3276     Ni3299   1.939       .  S
O3276      C3285   1.274       .  A
O3277     Ni3281   1.925       .  S
O3277     Ni3299   1.921       .  S
O3277     Ni3293   1.894       .  S
O3277      H3300   0.966       .  S
C3278      O3295   1.272       .  A
C3278      O3287   1.254       .  A
O3279     Ni3298   1.902       .  S
O3279      C3285   1.269       .  A
O3280     Ni3298   1.912       .  S
O3280      C3282   1.272       .  A
Ni3281     O3284   1.917       .  S
Ni3281     O3286   1.920       .  S
C3282      O3292   1.274       .  A
O3283     Ni3299   1.905       .  S
O3283      C3289   1.279       .  A
O3284      C3289   1.265       .  A
O3286      C3288   1.271       .  A
O3287     Ni3298   1.907       .  S
C3288      O3294   1.263       .  A
H3290      O3291   0.966       .  S
O3291     Ni3299   1.921       .  S
O3291     Ni3293   1.935       .  S
O3291     Ni3298   1.928       .  S
O3292     Ni3293   1.944       .  S
Ni3293     O3297   1.936       .  S
Ni3293     O3295   1.911       .  S
O3294     Ni3299   1.920       .  S
C3296      O3297   1.271       .  A
O3301     Ni3307   1.893       .  S
O3301      C3322   1.259       .  A
O3302     Ni3325   1.911       .  S
O3302      C3311   1.260       .  A
O3303     Ni3307   1.914       .  S
O3303     Ni3325   1.894       .  S
O3303     Ni3319   1.946       .  S
O3303      H3326   0.966       .  S
C3304      O3321   1.274       .  A
C3304      O3313   1.279       .  A
O3305     Ni3324   1.890       .  S
O3305      C3311   1.260       .  A
O3306     Ni3324   1.889       .  S
O3306      C3308   1.261       .  A
Ni3307     O3310   1.940       .  S
Ni3307     O3312   1.887       .  S
C3308      O3318   1.276       .  A
O3309     Ni3325   1.901       .  S
O3309      C3315   1.274       .  A
O3310      C3315   1.279       .  A
O3312      C3314   1.261       .  A
O3313     Ni3324   1.935       .  S
C3314      O3320   1.275       .  A
H3316      O3317   0.967       .  S
O3317     Ni3325   1.942       .  S
O3317     Ni3319   1.890       .  S
O3317     Ni3324   1.910       .  S
O3318     Ni3319   1.954       .  S
Ni3319     O3323   1.911       .  S
Ni3319     O3321   1.902       .  S
O3320     Ni3325   1.950       .  S
C3322      O3323   1.259       .  A
O3327     Ni3333   1.937       .  S
O3327      C3348   1.273       .  A
O3328     Ni3351   1.922       .  S
O3328      C3337   1.268       .  A
O3329     Ni3333   1.934       .  S
O3329     Ni3351   1.913       .  S
O3329     Ni3345   1.901       .  S
O3329      H3352   0.967       .  S
C3330      O3347   1.266       .  A
C3330      O3339   1.273       .  A
O3331     Ni3350   1.939       .  S
O3331      C3337   1.276       .  A
O3332     Ni3350   1.919       .  S
O3332      C3334   1.270       .  A
Ni3333     O3336   1.947       .  S
Ni3333     O3338   1.912       .  S
C3334      O3344   1.277       .  A
O3335     Ni3351   1.879       .  S
O3335      C3341   1.271       .  A
O3336      C3341   1.275       .  A
O3338      C3340   1.267       .  A
O3339     Ni3350   1.947       .  S
C3340      O3346   1.276       .  A
H3342      O3343   0.967       .  S
O3343     Ni3351   1.912       .  S
O3343     Ni3345   1.918       .  S
O3343     Ni3350   1.940       .  S
O3344     Ni3345   1.960       .  S
Ni3345     O3349   1.924       .  S
Ni3345     O3347   1.875       .  S
O3346     Ni3351   1.956       .  S
C3348      O3349   1.267       .  A
C3353      C3354   1.412       .  A
C3353      C3358   1.400       .  A
C3353      F3360   1.357       .  S
C3354      C3355   1.410       .  A
C3355      C3356   1.415       .  A
C3355      F3362   1.356       .  S
C3356      C3357   1.411       .  A
C3356      F3361   1.356       .  S
C3357      C3358   1.404       .  A
C3358      F3359   1.357       .  S
C3363      C3364   1.418       .  A
C3363      C3368   1.407       .  A
C3363      F3370   1.356       .  S
C3364      C3365   1.411       .  A
C3365      C3366   1.398       .  A
C3365      F3372   1.357       .  S
C3366      C3367   1.408       .  A
C3366      F3371   1.358       .  S
C3367      C3368   1.402       .  A
C3368      F3369   1.357       .  S
C3373      C3374   1.407       .  A
C3373      C3378   1.393       .  A
C3373      F3380   1.358       .  S
C3374      C3375   1.407       .  A
C3375      C3376   1.385       .  A
C3375      F3382   1.358       .  S
C3376      C3377   1.408       .  A
C3376      F3381   1.358       .  S
C3377      C3378   1.401       .  A
C3378      F3379   1.355       .  S
C3383      C3384   1.401       .  A
C3383      C3388   1.404       .  A
C3383      F3390   1.357       .  S
C3384      C3385   1.415       .  A
C3385      C3386   1.402       .  A
C3385      F3392   1.357       .  S
C3386      C3387   1.400       .  A
C3386      F3391   1.357       .  S
C3387      C3388   1.408       .  A
C3388      F3389   1.357       .  S
C3393      C3394   1.414       .  A
C3393      C3398   1.399       .  A
C3393      F3400   1.356       .  S
C3394      C3395   1.421       .  A
C3395      C3396   1.402       .  A
C3395      F3402   1.357       .  S
C3396      C3397   1.403       .  A
C3396      F3401   1.356       .  S
C3397      C3398   1.409       .  A
C3398      F3399   1.358       .  S
C3403      C3404   1.414       .  A
C3403      C3408   1.406       .  A
C3403      F3410   1.356       .  S
C3404      C3405   1.416       .  A
C3405      C3406   1.401       .  A
C3405      F3412   1.357       .  S
C3406      C3407   1.408       .  A
C3406      F3411   1.357       .  S
C3407      C3408   1.403       .  A
C3408      F3409   1.355       .  S
C3413      C3414   1.414   1_554  A
C3413      C3418   1.407       .  A
C3413      F3420   1.357       .  S
C3414      C3415   1.408       .  A
C3414      C3512   1.497       .  S
C3415      C3416   1.396   1_556  A
C3416      C3417   1.409       .  A
C3417      C3418   1.406       .  A
C3418      F3419   1.357       .  S
C3423      C3924   1.405       .  A
C3423      F3430   1.357       .  S
C3424      C3425   1.413       .  A
C3425      C3922   1.416   1_554  A
C3425      F3432   1.356   1_655  S
C3426      C3921   1.416       .  A
C3426      C3427   1.410       .  A
C3426      F3431   1.356   1_655  S
C3428      C3919   1.405       .  A
C3428      F3429   1.357       .  S
C3433      C3438   1.407       .  A
C3433      F3440   1.356   1_655  S
C3435      C3436   1.402       .  A
C3436      C3437   1.408       .  A
C3436      F3441   1.358       .  S
C3438      F3439   1.356       .  S
C3443      C3444   1.402       .  A
C3443      F3450   1.355       .  S
C3445      F3452   1.358       .  S
C3446      F3451   1.356       .  S
C3447      C3448   1.420       .  A
C3448      F3449   1.357       .  S
C3453      C3950   1.409       .  A
C3453      C3458   1.383   1_565  A
C3453      F3460   1.358       .  S
C3454      C3949   1.409       .  A
C3454      C3455   1.402   1_554  A
C3455      C3456   1.394       .  A
C3455      F3462   1.357       .  S
C3456      F3461   1.358       .  S
C3463      C3960   1.419       .  A
C3463      F3470   1.357       .  S
C3464      C3959   1.419       .  A
C3464      C3465   1.404   1_556  A
C3465      F3472   1.357       .  S
C3466      C3467   1.410   1_554  A
C3466      F3471   1.357       .  S
C3467      N3473   1.442       .  S
C3467      C3964   1.398       .  A
C3468      C3963   1.398       .  A
C3468      F3469   1.357       .  S
N3473      C3477   1.358       .  A
C3474      C3475   1.381       .  A
C3474      C3800   1.462       .  S
C3475      H3478   1.083       .  S
C3476      C3477   1.379       .  A
C3476      H3479   1.081       .  S
C3477      C3658   1.467       .  S
N3480      C3484   1.359       .  A
N3480      C3481   1.358       .  A
C3481      C3482   1.382       .  A
C3481      C3953   1.468       .  S
C3482      C3483   1.362       .  A
C3482      H3485   1.083       .  S
C3483      C3484   1.382       .  A
C3483      H3486   1.083       .  S
C3484      C3752   1.478       .  S
N3487      C3488   1.364       .  A
N3487      C3781   1.447       .  S
C3488      C3940   1.492       .  S
C3489      C3490   1.370       .  A
C3489      H3492   1.082       .  S
C3490      C3491   1.390       .  A
C3490      H3493   1.082       .  S
C3491      C3734   1.499       .  S
N3494      C3495   1.362       .  A
C3495      C3496   1.378       .  A
C3495      C3599   1.482       .  S
C3496      H3499   1.083       .  S
C3497      C3498   1.388       .  A
C3497      H3500   1.083       .  S
C3498      C3654   1.475       .  S
N3501      C3502   1.363       .  A
N3501      C3920   1.457       .  S
C3502      C3503   1.375       .  A
C3502      C3785   1.444       .  S
C3503      C3504   1.358   1_655  A
C3503      H3506   1.083       .  S
C3505      C3818   1.454       .  S
N3508      C3512   1.362       .  A
N3508      C3509   1.387       .  A
N3508      C3625   1.478       .  S
C3510      H3513   1.083       .  S
C3511      C3512   1.380       .  A
N3515      C3519   1.346       .  A
N3515      C3950   1.429       .  S
C3516      C3517   1.384       .  A
C3516      C3705   1.448       .  S
C3517      H3520   1.082       .  S
C3518      C3519   1.377       .  A
C3518      H3521   1.078       .  S
C3519      C3784   1.466       .  S
N3522      C3523   1.355       .  A
N3522      C3960   1.451       .  S
C3523      C3524   1.379       .  A
C3523      C3837   1.462       .  S
C3524      H3527   1.082       .  S
C3525      C3526   1.374       .  A
C3525      H3528   1.075       .  S
C3526      C3585   1.451       .  S
N3529      C3530   1.362       .  A
N3529      C3933   1.448   1_565  S
C3530      C3531   1.386       .  A
C3530      C3719   1.489       .  S
C3531      H3534   1.081       .  S
C3532      C3533   1.378       .  A
C3532      H3535   1.083       .  S
C3533      C3639   1.478       .  S
N3536      C3540   1.369       .  A
N3536      C3943   1.464       .  S
C3537      C3538   1.382       .  A
C3537      C3836   1.490       .  S
C3538      H3541   1.076       .  S
C3539      C3540   1.379       .  A
C3539      H3542   1.083       .  S
C3540      C3804   1.477       .  S
N3543      C3544   1.361       .  A
N3543      C3923   1.462       .  S
C3544      C3545   1.371       .  A
C3544      C3701   1.448       .  S
C3545      C3546   1.354       .  A
C3545      H3548   1.083       .  S
C3547      C3672   1.470       .  S
N3550      C3554   1.359       .  A
N3550      C3551   1.367       .  A
N3550      C3913   1.446       .  S
C3551      C3552   1.383       .  A
C3552      C3553   1.368       .  A
C3553      C3554   1.383       .  A
C3553      H3556   1.083       .  S
C3554      C3738   1.475       .  S
N3557      C3561   1.362       .  A
N3557      C3558   1.361       .  A
N3557      C3900   1.459       .  S
C3558      C3559   1.387       .  A
C3558      C3665   1.472       .  S
C3559      C3560   1.370       .  A
C3559      H3562   1.082       .  S
C3560      C3561   1.377       .  A
C3560      H3563   1.082       .  S
C3561      C3588   1.479       .  S
N3564      C3568   1.369       .  A
N3564      C3565   1.364       .  A
N3564      C3890   1.466       .  S
C3565      C3566   1.382       .  A
C3565      C3830   1.493       .  S
C3566      C3567   1.368       .  A
C3566      H3569   1.074       .  S
C3567      C3568   1.378       .  A
C3567      H3570   1.083       .  S
C3568      C3810   1.474       .  S
N3571      C3575   1.353       .  A
N3571      C3572   1.349       .  A
N3571      C3880   1.445       .  S
C3572      C3573   1.377       .  A
C3572      C3826   1.454       .  S
C3573      C3574   1.352       .  A
C3573      H3576   1.081       .  S
C3574      C3575   1.377       .  A
C3574      H3577   1.075       .  S
C3575      C3591   1.449       .  S
O3578     Ni3584   1.947       .  S
O3578      C3599   1.278       .  A
O3579     Ni3602   1.888       .  S
O3579      C3588   1.261       .  A
O3580     Ni3584   1.923       .  S
O3580     Ni3602   1.912       .  S
O3580     Ni3596   1.951       .  S
O3580      H3603   0.966       .  S
C3581      O3598   1.281       .  A
C3581      O3590   1.281       .  A
O3582     Ni3601   1.949       .  S
O3582      C3588   1.278       .  A
O3583     Ni3601   1.910       .  S
O3583      C3585   1.272       .  A
Ni3584     O3587   1.971       .  S
Ni3584     O3589   1.907       .  S
C3585      O3595   1.267       .  A
O3586     Ni3602   1.955       .  S
O3586      C3592   1.282       .  A
O3587      C3592   1.279       .  A
O3589      C3591   1.273       .  A
O3590     Ni3601   1.979       .  S
C3591      O3597   1.263       .  A
C3592      C3612   1.529       .  S
H3593      O3594   0.966       .  S
O3594     Ni3602   1.952       .  S
O3594     Ni3596   1.912       .  S
O3594     Ni3601   1.923       .  S
O3595     Ni3596   1.921       .  S
Ni3596     O3600   1.897       .  S
Ni3596     O3598   1.956       .  S
O3597     Ni3602   1.912       .  S
C3599      O3600   1.263       .  A
N3604      C3608   1.360       .  A
N3604      C3605   1.359       .  A
N3604      C3632   1.457       .  S
C3605      C3606   1.383       .  A
C3605      C3870   1.471       .  S
C3606      C3607   1.358       .  A
C3606      H3609   1.082       .  S
C3607      C3608   1.381       .  A
C3607      H3610   1.083       .  S
C3608      C3741   1.477       .  S
N3611      C3615   1.362       .  A
N3611      C3612   1.384       .  A
N3611      C3631   1.471       .  S
C3612      C3613   1.389       .  A
C3613      C3614   1.371       .  A
C3613      H3616   1.082       .  S
C3614      C3615   1.383       .  A
C3614      H3617   1.081       .  S
C3615      C3860   1.505       .  S
O3618     Ni3624   1.908       .  S
O3618      C3639   1.275       .  A
O3619     Ni3642   1.928       .  S
O3619      C3628   1.267       .  A
O3620     Ni3624   1.907       .  S
O3620     Ni3642   1.898       .  S
O3620     Ni3636   1.940       .  S
O3620      H3643   0.966       .  S
C3621      O3638   1.292       .  A
C3621      O3630   1.281       .  A
O3622     Ni3641   1.907       .  S
O3622      C3628   1.278       .  A
O3623     Ni3641   1.961       .  S
O3623      C3625   1.279       .  A
Ni3624     O3627   1.928       .  S
Ni3624     O3629   1.946       .  S
C3625      O3635   1.278       .  A
O3626     Ni3642   1.955       .  S
O3626      C3632   1.293       .  A
O3627      C3632   1.282       .  A
C3628      C3681   1.484       .  S
O3629      C3631   1.274       .  A
O3630     Ni3641   1.930       .  S
C3631      O3637   1.278       .  A
H3633      O3634   0.966       .  S
O3634     Ni3642   1.944       .  S
O3634     Ni3636   1.894       .  S
O3634     Ni3641   1.905       .  S
O3635     Ni3636   1.965       .  S
Ni3636     O3640   1.922       .  S
Ni3636     O3638   1.951       .  S
O3637     Ni3642   1.961       .  S
C3639      O3640   1.264       .  A
N3644      C3648   1.356       .  A
N3644      C3645   1.356       .  A
N3644      C3883   1.441       .  S
C3645      C3646   1.384       .  A
C3645      C3811   1.465       .  S
C3646      C3647   1.371       .  A
C3646      H3649   1.083       .  S
C3647      C3648   1.377       .  A
C3647      H3650   1.082       .  S
C3648      C3664   1.465       .  S
O3651     Ni3657   1.897       .  S
O3651      C3672   1.272       .  A
O3652     Ni3675   1.914       .  S
O3652      C3661   1.273       .  A
O3653     Ni3657   1.916       .  S
O3653     Ni3675   1.920       .  S
O3653     Ni3669   1.922       .  S
O3653      H3676   0.962       .  S
C3654      O3671   1.269       .  A
C3654      O3663   1.260       .  A
O3655     Ni3674   1.915       .  S
O3655      C3661   1.275       .  A
O3656     Ni3674   1.899       .  S
O3656      C3658   1.270       .  A
Ni3657     O3660   1.903       .  S
Ni3657     O3662   1.897       .  S
C3658      O3668   1.287       .  A
O3659     Ni3675   1.940       .  S
O3659      C3665   1.265       .  A
O3660      C3665   1.256       .  A
C3661      C3688   1.469       .  S
O3662      C3664   1.271       .  A
O3663     Ni3674   1.912       .  S
C3664      O3670   1.288       .  A
H3666      O3667   0.974       .  S
O3667     Ni3675   1.911       .  S
O3667     Ni3669   1.922       .  S
O3667     Ni3674   1.915       .  S
O3668     Ni3669   1.972       .  S
Ni3669     O3673   1.929       .  S
Ni3669     O3671   1.943       .  S
O3670     Ni3675   1.974       .  S
C3672      O3673   1.278       .  A
N3677      C3681   1.372       .  A
N3677      C3678   1.366       .  A
N3677      C3903   1.448       .  S
C3678      C3679   1.387       .  A
C3678      C3708   1.495       .  S
C3679      C3680   1.360       .  A
C3679      H3682   1.083       .  S
C3680      C3681   1.378       .  A
C3680      H3683   1.083       .  S
N3684      C3688   1.362       .  A
N3684      C3685   1.362       .  A
N3684      C3850   1.455       .  S
C3685      C3686   1.374       .  A
C3685      C3712   1.458       .  S
C3686      C3687   1.357       .  A
C3686      H3689   1.083       .  S
C3687      C3688   1.385       .  A
C3687      H3690   1.083       .  S
N3691      C3695   1.347       .  A
N3691      C3692   1.352       .  A
N3691      C3873   1.428       .  S
C3692      C3693   1.382       .  A
C3692      C3711   1.457       .  S
C3693      C3694   1.369       .  A
C3693      H3696   1.082       .  S
C3694      C3695   1.378       .  A
C3694      H3697   1.076       .  S
C3695      C3778   1.465       .  S
O3698     Ni3704   1.887       .  S
O3698      C3719   1.255       .  A
O3699     Ni3722   1.948       .  S
O3699      C3708   1.262       .  A
O3700     Ni3704   1.904       .  S
O3700     Ni3722   1.915       .  S
O3700     Ni3716   1.941       .  S
O3700      H3723   0.967       .  S
C3701      O3718   1.291       .  A
C3701      O3710   1.273       .  A
O3702     Ni3721   1.876       .  S
O3702      C3708   1.255       .  A
O3703     Ni3721   1.872       .  S
O3703      C3705   1.258       .  A
Ni3704     O3707   1.945       .  S
Ni3704     O3709   1.877       .  S
C3705      O3715   1.263       .  A
O3706     Ni3722   1.912       .  S
O3706      C3712   1.287       .  A
O3707      C3712   1.283       .  A
O3709      C3711   1.247       .  A
O3710     Ni3721   1.883       .  S
C3711      O3717   1.258       .  A
H3713      O3714   0.966       .  S
O3714     Ni3722   1.945       .  S
O3714     Ni3716   1.915       .  S
O3714     Ni3721   1.901       .  S
O3715     Ni3716   1.914       .  S
Ni3716     O3720   1.950       .  S
Ni3716     O3718   1.952       .  S
O3717     Ni3722   1.926       .  S
C3719      O3720   1.266       .  A
N3724      C3728   1.359       .  A
N3724      C3725   1.366       .  A
N3724      C3863   1.445       .  S
C3725      C3726   1.384       .  A
C3725      C3844   1.490       .  S
C3726      C3727   1.367       .  A
C3726      H3729   1.083       .  S
C3727      C3728   1.383       .  A
C3727      H3730   1.083       .  S
C3728      C3744   1.477       .  S
O3731     Ni3737   1.905       .  S
O3731      C3752   1.270       .  A
O3732     Ni3755   1.952       .  S
O3732      C3741   1.285       .  A
O3733     Ni3737   1.913       .  S
O3733     Ni3755   1.934       .  S
O3733     Ni3749   1.926       .  S
O3733      H3756   0.966       .  S
C3734      O3751   1.274       .  A
C3734      O3743   1.253       .  A
O3735     Ni3754   1.897       .  S
O3735      C3741   1.269       .  A
O3736     Ni3754   1.887       .  S
O3736      C3738   1.272       .  A
Ni3737     O3740   1.904       .  S
Ni3737     O3742   1.892       .  S
C3738      O3748   1.289       .  A
O3739     Ni3755   1.978       .  S
O3739      C3745   1.276       .  A
O3740      C3745   1.258       .  A
O3742      C3744   1.272       .  A
O3743     Ni3754   1.896       .  S
C3744      O3750   1.288       .  A
C3745      C3768   1.506       .  S
H3746      O3747   0.966       .  S
O3747     Ni3755   1.932       .  S
O3747     Ni3749   1.935       .  S
O3747     Ni3754   1.916       .  S
O3748     Ni3749   1.983       .  S
Ni3749     O3753   1.949       .  S
Ni3749     O3751   1.979       .  S
O3750     Ni3755   1.983       .  S
C3752      O3753   1.285       .  A
N3757      C3761   1.351       .  A
N3757      C3758   1.359       .  A
N3757      C3853   1.451       .  S
C3758      C3759   1.375       .  A
C3758      C3774   1.445       .  S
C3759      C3760   1.362       .  A
C3759      H3762   1.083       .  S
C3760      C3761   1.386       .  A
C3760      H3763   1.078       .  S
C3761      C3807   1.455       .  S
N3764      C3768   1.374       .  A
N3764      C3765   1.363       .  A
N3764      C3792   1.450       .  S
C3765      C3766   1.379       .  A
C3765      C3893   1.490       .  S
C3766      C3767   1.371       .  A
C3766      H3769   1.082       .  S
C3767      C3768   1.392       .  A
C3767      H3770   1.083       .  S
O3771     Ni3777   1.926       .  S
O3771      C3792   1.275       .  A
O3772     Ni3795   1.939       .  S
O3772      C3781   1.274       .  A
O3773     Ni3777   1.925       .  S
O3773     Ni3795   1.921       .  S
O3773     Ni3789   1.894       .  S
O3773      H3796   0.966       .  S
C3774      O3791   1.272       .  A
C3774      O3783   1.254       .  A
O3775     Ni3794   1.902       .  S
O3775      C3781   1.269       .  A
O3776     Ni3794   1.912       .  S
O3776      C3778   1.272       .  A
Ni3777     O3780   1.917       .  S
Ni3777     O3782   1.920       .  S
C3778      O3788   1.274       .  A
O3779     Ni3795   1.905       .  S
O3779      C3785   1.279       .  A
O3780      C3785   1.265       .  A
O3782      C3784   1.271       .  A
O3783     Ni3794   1.907       .  S
C3784      O3790   1.263       .  A
H3786      O3787   0.966       .  S
O3787     Ni3795   1.921       .  S
O3787     Ni3789   1.935       .  S
O3787     Ni3794   1.928       .  S
O3788     Ni3789   1.944       .  S
Ni3789     O3793   1.936       .  S
Ni3789     O3791   1.911       .  S
O3790     Ni3795   1.920       .  S
C3792      O3793   1.271       .  A
O3797     Ni3803   1.893       .  S
O3797      C3818   1.259       .  A
O3798     Ni3821   1.911       .  S
O3798      C3807   1.260       .  A
O3799     Ni3803   1.914       .  S
O3799     Ni3821   1.894       .  S
O3799     Ni3815   1.946       .  S
O3799      H3822   0.966       .  S
C3800      O3817   1.274       .  A
C3800      O3809   1.279       .  A
O3801     Ni3820   1.890       .  S
O3801      C3807   1.260       .  A
O3802     Ni3820   1.889       .  S
O3802      C3804   1.261       .  A
Ni3803     O3806   1.940       .  S
Ni3803     O3808   1.887       .  S
C3804      O3814   1.276       .  A
O3805     Ni3821   1.901       .  S
O3805      C3811   1.273       .  A
O3806      C3811   1.279       .  A
O3808      C3810   1.261       .  A
O3809     Ni3820   1.935       .  S
C3810      O3816   1.275       .  A
H3812      O3813   0.967       .  S
O3813     Ni3821   1.942       .  S
O3813     Ni3815   1.890       .  S
O3813     Ni3820   1.910       .  S
O3814     Ni3815   1.954       .  S
Ni3815     O3819   1.911       .  S
Ni3815     O3817   1.902       .  S
O3816     Ni3821   1.950       .  S
C3818      O3819   1.259       .  A
O3823     Ni3829   1.937       .  S
O3823      C3844   1.273       .  A
O3824     Ni3847   1.922       .  S
O3824      C3833   1.268       .  A
O3825     Ni3829   1.934       .  S
O3825     Ni3847   1.913       .  S
O3825     Ni3841   1.901       .  S
O3825      H3848   0.967       .  S
C3826      O3843   1.266       .  A
C3826      O3835   1.273       .  A
O3827     Ni3846   1.939       .  S
O3827      C3833   1.276       .  A
O3828     Ni3846   1.919       .  S
O3828      C3830   1.270       .  A
Ni3829     O3832   1.947       .  S
Ni3829     O3834   1.912       .  S
C3830      O3840   1.277       .  A
O3831     Ni3847   1.879       .  S
O3831      C3837   1.271       .  A
O3832      C3837   1.275       .  A
O3834      C3836   1.267       .  A
O3835     Ni3846   1.947       .  S
C3836      O3842   1.276       .  A
H3838      O3839   0.967       .  S
O3839     Ni3847   1.912       .  S
O3839     Ni3841   1.918       .  S
O3839     Ni3846   1.940       .  S
O3840     Ni3841   1.960       .  S
Ni3841     O3845   1.924       .  S
Ni3841     O3843   1.875       .  S
O3842     Ni3847   1.956       .  S
C3844      O3845   1.267       .  A
C3849      C3850   1.412       .  A
C3849      C3854   1.400       .  A
C3849      F3856   1.357       .  S
C3850      C3851   1.410       .  A
C3851      C3852   1.415       .  A
C3851      F3858   1.356       .  S
C3852      C3853   1.411       .  A
C3852      F3857   1.357       .  S
C3853      C3854   1.404       .  A
C3854      F3855   1.357       .  S
C3859      C3860   1.418       .  A
C3859      C3864   1.407       .  A
C3859      F3866   1.356       .  S
C3860      C3861   1.411       .  A
C3861      C3862   1.398       .  A
C3861      F3868   1.357       .  S
C3862      C3863   1.408       .  A
C3862      F3867   1.358       .  S
C3863      C3864   1.402       .  A
C3864      F3865   1.357       .  S
C3869      C3870   1.407       .  A
C3869      C3874   1.393       .  A
C3869      F3876   1.358       .  S
C3870      C3871   1.407       .  A
C3871      C3872   1.385       .  A
C3871      F3878   1.358       .  S
C3872      C3873   1.408       .  A
C3872      F3877   1.358       .  S
C3873      C3874   1.401       .  A
C3874      F3875   1.355       .  S
C3879      C3880   1.401       .  A
C3879      C3884   1.404       .  A
C3879      F3886   1.357       .  S
C3880      C3881   1.415       .  A
C3881      C3882   1.402       .  A
C3881      F3888   1.357       .  S
C3882      C3883   1.400       .  A
C3882      F3887   1.357       .  S
C3883      C3884   1.408       .  A
C3884      F3885   1.357       .  S
C3889      C3890   1.414       .  A
C3889      C3894   1.399       .  A
C3889      F3896   1.356       .  S
C3890      C3891   1.421       .  A
C3891      C3892   1.402       .  A
C3891      F3898   1.357       .  S
C3892      C3893   1.403       .  A
C3892      F3897   1.356       .  S
C3893      C3894   1.409       .  A
C3894      F3895   1.358       .  S
C3899      C3900   1.414       .  A
C3899      C3904   1.406       .  A
C3899      F3906   1.356       .  S
C3900      C3901   1.416       .  A
C3901      C3902   1.401       .  A
C3901      F3908   1.357       .  S
C3902      C3903   1.408       .  A
C3902      F3907   1.357       .  S
C3903      C3904   1.403       .  A
C3904      F3905   1.355       .  S
C3909      C3910   1.414       .  A
C3909      C3914   1.407       .  A
C3909      F3916   1.357       .  S
C3910      C3911   1.408       .  A
C3911      C3912   1.396       .  A
C3912      C3913   1.409       .  A
C3913      C3914   1.406       .  A
C3914      F3915   1.357       .  S
C3919      F3926   1.357       .  S
C3920      C3921   1.413       .  A
C3921      F3928   1.356   1_655  S
C3922      C3923   1.410       .  A
C3922      F3927   1.356   1_655  S
C3924      F3925   1.357   1_554  S
C3929      C3934   1.407       .  A
C3929      F3936   1.356   1_655  S
C3931      C3932   1.402       .  A
C3932      C3933   1.408       .  A
C3932      F3937   1.358       .  S
C3934      F3935   1.356       .  S
C3939      C3940   1.402       .  A
C3939      F3946   1.355       .  S
C3941      F3948   1.358       .  S
C3942      F3947   1.356       .  S
C3943      C3944   1.420       .  A
C3944      F3945   1.357       .  S
C3949      C3954   1.383   1_565  A
C3949      F3956   1.358       .  S
C3950      C3951   1.402       .  A
C3951      C3952   1.394       .  A
C3951      F3958   1.357       .  S
C3952      F3957   1.358       .  S
C3959      F3966   1.357       .  S
C3960      C3961   1.404       .  A
C3961      F3968   1.357       .  S
C3962      C3963   1.410       .  A
C3962      F3967   1.357       .  S
C3964      F3965   1.357       .  S
