geometry optimzed in LAMMPS
_audit_creation_date              2020-11-30 
_audit_creation_method            'lammps2cif' 
_symmetry_space_group_name_H-M    'P1' 
_symmetry_Int_Tables_number       1 
_symmetry_cell_setting            triclinic 
loop_ 
_symmetry_equiv_pos_as_xyz 
  x,y,z 
_cell_length_a                    21.77798854 
_cell_length_b                    21.134168760963508 
_cell_length_c                    50.74892329806658 
_cell_angle_alpha                 90.31191621366379 
_cell_angle_beta                  90.38351407416374 
_cell_angle_gamma                 94.20888242745872 
loop_ 
_atom_site_label 
_atom_site_type_symbol 
_atom_site_fract_x 
_atom_site_fract_y 
_atom_site_fract_z 
_atom_site_charge 
C1          C  0.50229952  0.49443121  0.74110961    -0.02400
O2          O  0.18357537  0.45783598  0.65090423    -0.74300
O3          O  0.30404658  0.44933071  0.70555752    -0.74300
O4          O  0.17862308  0.46310698  0.70405561    -0.74400
O5          O  0.30335450  0.44553405  0.65161127    -0.74400
O6          O  0.32781604  0.06449771  0.65550649    -0.74400
O7          O  0.20589126  0.06110414  0.71015322    -0.74300
O8          O  0.33269450  0.06889385  0.70952085    -0.74300
O9          O  0.20605959  0.05731800  0.65660177    -0.74400
Ni10       Ni  0.24186298  0.45015047  0.67849198     1.25400
Ni11       Ni  0.26831624  0.06673172  0.68326809     1.25400
C12         C  0.17696708  0.51120259  0.63989083     0.87900
C13         C  0.33607598  0.49990621  0.71265153     0.87800
C14         C  0.16604467  0.51893794  0.71139824     0.87800
C15         C  0.32763210  0.49606117  0.64080107     0.88000
O16         O  0.18836580  0.43374014  0.29224668    -0.74300
O17         O  0.32177272  0.45020703  0.34110597    -0.74300
O18         O  0.20056402  0.44078920  0.34543647    -0.74400
O19         O  0.31473154  0.44541480  0.28788843    -0.74400
O20         O  0.31450813  0.04825615  0.29289901    -0.74400
O21         O  0.19876159  0.03729299  0.34948213    -0.74300
O22         O  0.31990416  0.04838415  0.34671154    -0.74300
O23         O  0.18611375  0.03559750  0.29623088    -0.74400
Ni24       Ni  0.25639573  0.43883120  0.31632657     1.25400
Ni25       Ni  0.25477867  0.04613981  0.32088383     1.25400
C26         C  0.16255229  0.48292067  0.28456563     0.87900
C27         C  0.33677715  0.50445280  0.35144615     0.87800
C28         C  0.18420421  0.49343672  0.35483856     0.87800
C29         C  0.33607199  0.49937908  0.27911724     0.88000
O30         O  0.05163059  0.44836976  0.02492561    -0.74300
O31         O  0.04461129  0.06749708  0.97298168    -0.74300
O32         O  0.04465363  0.05928256  0.02742524    -0.74400
O33         O  0.05161491  0.45202185  0.97072356    -0.74400
O34         O  0.43988708  0.43821239  0.96976700    -0.74400
O35         O  0.42928481  0.05750922  0.02466278    -0.74300
O36         O  0.42982735  0.06139726  0.96968115    -0.74300
O37         O  0.43836587  0.43653649  0.02414385    -0.74400
Ni38       Ni  0.04911923  0.51255829  0.99868474     1.25400
Ni39       Ni  0.43198328  0.49923125  0.99724581     1.25400
C40         C  0.49052599  0.42566323  0.03439684     0.87900
C41         C  0.48145069  0.08311287  0.96006578     0.87800
C42         C  0.48038345  0.07494169  0.03616395     0.87800
C43         C  0.49239269  0.42947526  0.95968583     0.88000
O44         O  0.45101799  0.30376098  0.15090920    -0.74300
O45         O  0.45253830  0.18954421  0.20958641    -0.74300
O46         O  0.46491455  0.32103032  0.20378073    -0.74400
O47         O  0.43976620  0.17910076  0.15579099    -0.74400
O48         O  0.05202844  0.18404048  0.15494691    -0.74400
O49         O  0.06831793  0.32597610  0.20220621    -0.74300
O50         O  0.05945941  0.19484576  0.20842049    -0.74300
O51         O  0.06011745  0.30891551  0.14971085    -0.74400
Ni52       Ni  0.44845169  0.24831555  0.18062337     1.25400
Ni53       Ni  0.06356566  0.25330518  0.17919486     1.25400
C54         C  0.50075245  0.31593803  0.13796686     0.87900
C55         C  0.50330780  0.16750233  0.21683224     0.87800
C56         C  0.51984966  0.34656495  0.20721647     0.87800
C57         C  0.48713493  0.15907032  0.14441339     0.88000
C58         C  0.50064687  0.50365674  0.24860328    -0.02400
O59         O  0.47157378  0.32023745  0.78852136    -0.74300
O60         O  0.44978738  0.18930220  0.84057326    -0.74300
O61         O  0.45768778  0.31466675  0.84152659    -0.74400
O62         O  0.46339071  0.18953504  0.78683915    -0.74400
O63         O  0.06681509  0.18239347  0.79185770    -0.74400
O64         O  0.06531556  0.31119987  0.84539094    -0.74300
O65         O  0.05831514  0.18572712  0.84547284    -0.74300
O66         O  0.07385009  0.31187031  0.79182408    -0.74400
Ni67       Ni  0.45694819  0.25317187  0.81377092     1.25400
Ni68       Ni  0.06968708  0.24778391  0.81845123     1.25400
C69         C  0.02560425  0.33501413  0.78247217     0.87900
C70         C  0.49753658  0.17339531  0.85311583     0.87800
C71         C  0.50715423  0.33077172  0.85444716     0.87800
C72         C  0.51512556  0.16819311  0.78085974     0.88000
O73         O  0.45504331  0.05053617  0.47339210    -0.74300
O74         O  0.07926886  0.05334634  0.53013843    -0.74300
O75         O  0.08466574  0.04753358  0.47596555    -0.74400
O76         O  0.45319857  0.05346924  0.52783129    -0.74400
O77         O  0.43168002  0.44115547  0.52364786    -0.74400
O78         O  0.06227002  0.45493768  0.46959327    -0.74300
O79         O  0.06461702  0.45660990  0.52347494    -0.74300
O80         O  0.43000657  0.44489546  0.46917447    -0.74400
Ni81       Ni  0.51489319  0.05200557  0.50124207     1.25400
Ni82       Ni  0.49076931  0.43679964  0.49603942     1.25400
C83         C  0.42053340  0.49890355  0.45913218     0.87900
C84         C  0.08608571  0.50951623  0.53347760     0.87800
C85         C  0.08236915  0.50694365  0.45889148     0.87800
C86         C  0.42258179  0.49400916  0.53490618     0.88000
C87         C  0.53079885  0.41133674  0.21904437    -0.16300
C88         C  0.49137470  0.43669439  0.23577382    -0.31500
H89         H  0.07158350  0.44498447  0.21702276     0.12700
H90         H  0.45061325  0.40664977  0.24101391     0.13300
C91         C  0.50297726  0.11840087  0.23777275    -0.16300
C92         C  0.50067433  0.05531037  0.23219317    -0.31500
H93         H  0.00980856  0.13875489  0.25917143     0.12700
H94         H  0.49797647  0.04073653  0.21161853     0.13300
C95         C  0.05224407  0.11247915  0.92150287    -0.13200
C96         C  0.48397281  0.11260869  0.93365270     0.08900
C97         C  0.43018419  0.12071960  0.91893316    -0.13200
C98         C  0.43384719  0.13723880  0.89220504    -0.13200
C99         C  0.49133506  0.14488776  0.87962953     0.08900
C100        C  0.05409240  0.12795952  0.89482859    -0.13200
H101        H  0.09473247  0.10161267  0.93110968     0.12900
H102        H  0.38527725  0.11323166  0.92793370     0.12900
H103        H  0.39189151  0.14494445  0.88153458     0.12900
H104        H  0.09823223  0.13099802  0.88503873     0.12900
C105        C  0.44188821  0.38904654  0.91797973    -0.13200
C106        C  0.49546026  0.39991464  0.93342926     0.08900
C107        C  0.06255769  0.39486359  0.92080876    -0.13200
C108        C  0.06535010  0.37490831  0.89455689    -0.13200
C109        C  0.50335243  0.36199908  0.88032855     0.08900
C110        C  0.44579108  0.37027770  0.89166796    -0.13200
H111        H  0.39697915  0.39611673  0.92606265     0.12900
H112        H  0.10520076  0.40757171  0.93128855     0.12900
H113        H  0.11004505  0.37063991  0.88576940     0.12900
H114        H  0.40365573  0.36078908  0.88042794     0.12900
C115        C  0.43857051  0.37148312  0.07289266    -0.13200
C116        C  0.49296686  0.39119534  0.05959966     0.08900
C117        C  0.06081130  0.39126518  0.07456436    -0.13200
C118        C  0.06197726  0.37224723  0.10085700    -0.13200
C119        C  0.49789064  0.34530214  0.11167674     0.08900
C120        C  0.44100923  0.34877570  0.09867134    -0.13200
H121        H  0.39400927  0.37508680  0.06364243     0.12900
H122        H  0.10373356  0.40758698  0.06533737     0.14300
H123        H  0.10593889  0.37226192  0.11096613     0.12900
H124        H  0.39833309  0.33346343  0.10832865     0.12900
C125        C  0.04919737  0.10091359  0.08034798    -0.13200
C126        C  0.48065787  0.09814666  0.06377756     0.08900
C127        C  0.42667635  0.11539506  0.07612387    -0.13200
C128        C  0.42695223  0.13022851  0.10313296    -0.13200
C129        C  0.48096127  0.12712014  0.11836569     0.08900
C130        C  0.04955059  0.11844294  0.10694568    -0.13200
H131        H  0.09214204  0.08937782  0.07149173     0.12900
H132        H  0.38451243  0.11794802  0.06488299     0.12900
H133        H  0.38568864  0.14678353  0.11179811     0.12900
H134        H  0.09310247  0.12219597  0.11744103     0.12900
C135        C  0.38513194  0.55942085  0.42005982    -0.13200
C136        C  0.39452454  0.50116692  0.43221868     0.08900
C137        C  0.39039258  0.44569699  0.41679431    -0.13200
C138        C  0.37695410  0.44808679  0.38999518    -0.13200
C139        C  0.36599116  0.50587444  0.37784923     0.08900
C140        C  0.37054456  0.56169072  0.39315452    -0.13200
H141        H  0.38953904  0.60326010  0.43127754     0.12900
H142        H  0.39910123  0.40024982  0.42526527     0.12900
H143        H  0.37312230  0.40393599  0.37897849     0.12900
H144        H  0.36113344  0.60677495  0.38454078     0.12900
C145        C  0.16431358  0.04182548  0.40201031    -0.13200
C146        C  0.15497510  0.49548312  0.38093840     0.08900
C147        C  0.15052129  0.44159034  0.39706641    -0.13200
C148        C  0.12999521  0.44594298  0.42299084    -0.13200
C149        C  0.11386943  0.50430293  0.43332350     0.08900
C150        C  0.14704582  0.04348552  0.42833097    -0.13200
H151        H  0.18020105  0.08606009  0.39276604     0.12900
H152        H  0.16363568  0.39630243  0.38979823     0.12900
H153        H  0.12581835  0.40332952  0.43481854     0.12900
H154        H  0.14797533  0.08907979  0.43821707     0.12900
C155        C  0.38684949  0.50201295  0.25983395    -0.16300
C156        C  0.44662978  0.50942492  0.26763138    -0.31500
H157        H  0.37540856  0.49288388  0.23924207     0.12700
H158        H  0.45786842  0.01812765  0.29334270     0.13300
C159        C  0.10337749  0.47237269  0.26991029    -0.16300
C160        C  0.06215505  0.51681075  0.26692363    -0.31500
H161        H  0.09202702  0.42407666  0.26349938     0.12700
H162        H  0.07651077  0.06313189  0.27817622     0.13300
C163        C  0.13511519  0.45373881  0.60002131    -0.13200
C164        C  0.14918263  0.51150996  0.61336108     0.08900
C165        C  0.14696907  0.56855407  0.59946435    -0.13200
C166        C  0.13054228  0.56780449  0.57283709    -0.13200
C167        C  0.11606505  0.50999402  0.55957371     0.08900
C168        C  0.11899915  0.45297618  0.57341855    -0.13200
H169        H  0.13774014  0.40880569  0.60998426     0.12900
H170        H  0.15882528  0.61374863  0.60903998     0.12900
H171        H  0.12761924  0.61264944  0.56284023     0.12900
H172        H  0.10712319  0.40768701  0.56392099     0.12900
C173        C  0.38171883  0.54933577  0.60294589    -0.13200
C174        C  0.35780063  0.49294432  0.61481579     0.08900
C175        C  0.35332481  0.43669790  0.59976310    -0.13200
C176        C  0.37187299  0.43718641  0.57335985    -0.13200
C177        C  0.39464293  0.49404209  0.56142690     0.08900
C178        C  0.39958438  0.54993549  0.57662652    -0.13200
H179        H  0.38529282  0.59369902  0.61382230     0.12900
H180        H  0.36424054  0.90752810  0.61622379     0.12900
H181        H  0.36870465  0.39302397  0.56234586     0.12900
H182        H  0.41842427  0.59426277  0.56834414     0.12900
C183        C  0.51831206  0.05509007  0.76949682    -0.16300
C184        C  0.51668073  0.11594378  0.76160544    -0.31500
H185        H  0.51953292  0.04575979  0.79055933     0.12700
H186        H  0.01260150  0.12332501  0.74048518     0.13300
C187        C  0.03400008  0.38885966  0.76407249    -0.16300
C188        C  0.49413401  0.42826622  0.75366821    -0.31500
H189        H  0.07809799  0.39396174  0.75426091     0.12700
H190        H  0.45348027  0.39733737  0.74883541     0.13300
C191        C  0.06016877  0.48852219  0.72687309    -0.16300
C192        C  0.11194057  0.52798299  0.72830657    -0.31500
H193        H  0.06468827  0.00698759  0.70811292     0.12700
H194        H  0.11381761  0.56998756  0.74073141     0.13300
C195        C  0.44748769  0.50181888  0.72254414    -0.16300
C196        C  0.38843903  0.49500427  0.73089919    -0.31500
H197        H  0.45623612  0.51262027  0.70191010     0.12700
H198        H  0.40664043  0.05820819  0.75193566     0.13300
C199        C  0.51886545  0.99901042  0.75018854    -0.02400
O200        O  0.20437423  0.95177177  0.65766444    -0.74300
O201        O  0.33363336  0.96346570  0.70993313    -0.74300
O202        O  0.20605375  0.95567036  0.71161021    -0.74400
O203        O  0.32588937  0.95896342  0.65657152    -0.74400
O204        O  0.32041165  0.55079428  0.65071428    -0.74400
O205        O  0.19888000  0.56806067  0.70372999    -0.74300
O206        O  0.32382565  0.55433374  0.70390871    -0.74300
O207        O  0.20058385  0.56314175  0.65006951    -0.74400
Ni208      Ni  0.26739180  0.95374095  0.68438189     1.25400
Ni209      Ni  0.26146907  0.56280725  0.67744807     1.25400
C210        C  0.18869980  0.00290311  0.64680823     0.87900
C211        C  0.35609010  0.01843837  0.71751182     0.87800
C212        C  0.18400865  0.00746767  0.71902728     0.87800
C213        C  0.34160562  0.01169986  0.64532723     0.88000
O214        O  0.18864475  0.93040543  0.29668399    -0.74300
O215        O  0.32243550  0.94316226  0.34605939    -0.74300
O216        O  0.20135323  0.93207679  0.35023393    -0.74400
O217        O  0.31559359  0.94285055  0.29253476    -0.74400
O218        O  0.31468681  0.55092991  0.28711541    -0.74400
O219        O  0.19770610  0.54583842  0.34302650    -0.74300
O220        O  0.31916424  0.55542170  0.34106259    -0.74300
O221        O  0.18638883  0.53891258  0.29014670    -0.74400
Ni222      Ni  0.25698835  0.93339860  0.32093790     1.25400
Ni223      Ni  0.25464795  0.55160090  0.31482153     1.25400
C224        C  0.16276421  0.98015407  0.28953239     0.87900
C225        C  0.33787548  0.99712211  0.35666258     0.87800
C226        C  0.18651532  0.98396522  0.36084467     0.87800
C227        C  0.33663951  0.99753586  0.28435328     0.88000
O228        O  0.04290756  0.93474158  0.02335193    -0.74300
O229        O  0.03929718  0.57512026  0.97221676    -0.74300
O230        O  0.03968148  0.57151744  0.02677567    -0.74400
O231        O  0.04200858  0.94274835  0.96927393    -0.74400
O232        O  0.43186210  0.93614019  0.96827398    -0.74400
O233        O  0.43123606  0.56124962  0.02491854    -0.74300
O234        O  0.43359259  0.56219018  0.97015661    -0.74300
O235        O  0.43216433  0.93275411  0.02282232    -0.74400
Ni236      Ni  0.04713266  0.00139690  0.99825765     1.25400
Ni237      Ni  0.42697947  0.99674049  0.99631345     1.25400
C238        C  0.48422097  0.92000279  0.03268461     0.87900
C239        C  0.48468765  0.58384442  0.96006084     0.87800
C240        C  0.48156553  0.58193658  0.03622109     0.87800
C241        C  0.48341063  0.92575001  0.95762400     0.88000
O242        O  0.44847059  0.81482669  0.15220895    -0.74300
O243        O  0.44998867  0.69439204  0.20860743    -0.74300
O244        O  0.46349258  0.82627889  0.20555455    -0.74400
O245        O  0.43639089  0.68996397  0.15492013    -0.74400
O246        O  0.04768581  0.68671507  0.15457767    -0.74400
O247        O  0.06930065  0.82714166  0.20240315    -0.74300
O248        O  0.05795044  0.69609090  0.20783270    -0.74300
O249        O  0.05790133  0.81142904  0.14971189    -0.74400
Ni250      Ni  0.44597213  0.75645846  0.18094858     1.25400
Ni251      Ni  0.06183195  0.75523824  0.17895979     1.25400
C252        C  0.49782579  0.82650449  0.13895193     0.87900
C253        C  0.50056349  0.67075133  0.21499917     0.87800
C254        C  0.51876907  0.85040047  0.20951906     0.87800
C255        C  0.48348638  0.66990923  0.14335590     0.88000
C256        C  0.50180652  0.00355206  0.25347820    -0.02400
O257        O  0.43638555  0.79837986  0.78865121    -0.74300
O258        O  0.44181077  0.66741852  0.84000506    -0.74300
O259        O  0.43515762  0.79177549  0.84239650    -0.74400
O260        O  0.44439808  0.66976366  0.78632496    -0.74400
O261        O  0.02839252  0.67824890  0.78827410    -0.74400
O262        O  0.03310348  0.80666558  0.84236544    -0.74300
O263        O  0.03123596  0.68138354  0.84209882    -0.74300
O264        O  0.03019747  0.80942313  0.78874942    -0.74400
Ni265      Ni  0.43581996  0.73127772  0.81397459     1.25400
Ni266      Ni  0.03442312  0.74403461  0.81497099     1.25400
C267        C  0.97845571  0.82883712  0.78123757     0.87900
C268        C  0.49331683  0.65874601  0.85117875     0.87800
C269        C  0.48525099  0.81485199  0.85335192     0.87800
C270        C  0.49739400  0.65634341  0.77801436     0.88000
O271        O  0.44082281  0.55057527  0.47045084    -0.74300
O272        O  0.07505692  0.56233698  0.52288013    -0.74300
O273        O  0.07031406  0.56069040  0.46871304    -0.74400
O274        O  0.44337382  0.54679073  0.52486288    -0.74400
O275        O  0.44062062  0.94789426  0.52860964    -0.74400
O276        O  0.06869045  0.94221442  0.47725142    -0.74300
O277        O  0.06297390  0.94803736  0.53148410    -0.74300
O278        O  0.44176004  0.94498841  0.47411503    -0.74400
Ni279      Ni  0.50277367  0.55002556  0.49721902     1.25400
Ni280      Ni  0.50098353  0.93891244  0.50183126     1.25400
C281        C  0.43328566  0.99807618  0.46306686     0.87900
C282        C  0.08612122  0.00032505  0.54152729     0.87800
C283        C  0.09358152  0.99244181  0.46664018     0.87800
C284        C  0.43132251  0.00214710  0.53866220     0.88000
C285        C  0.53094557  0.91288368  0.22314063    -0.16300
C286        C  0.49224648  0.93670358  0.24062081    -0.31500
H287        H  0.07565211  0.94437963  0.21989303     0.12700
H288        H  0.45146332  0.90661488  0.24572139     0.13300
C289        C  0.49997013  0.61901217  0.23468262    -0.16300
C290        C  0.49943788  0.55659345  0.22790508    -0.31500
H291        H  0.00798446  0.63804532  0.25813749     0.12700
H292        H  0.49821245  0.54371183  0.20713176     0.13300
C293        C  0.03921909  0.62038490  0.92037952    -0.13200
C294        C  0.48564243  0.60842813  0.93281561     0.08900
C295        C  0.43315288  0.59847922  0.91662397    -0.13200
C296        C  0.43669057  0.60997262  0.88956380    -0.13200
C297        C  0.49276939  0.63182839  0.87801671     0.08900
C298        C  0.03782371  0.63368704  0.89346664    -0.13200
H299        H  0.08358013  0.61843799  0.92999360     0.12900
H300        H  0.38954006  0.58031819  0.92473261     0.12900
H301        H  0.39501596  0.60331139  0.87779136     0.12900
H302        H  0.08106842  0.64430629  0.88344703     0.12900
C303        C  0.42901764  0.86847771  0.91974074    -0.13200
C304        C  0.48402903  0.89367071  0.93163392     0.08900
C305        C  0.04297422  0.89112068  0.91775206    -0.13200
C306        C  0.04091217  0.87045556  0.89151151    -0.13200
C307        C  0.48354065  0.84711216  0.87926578     0.08900
C308        C  0.42881088  0.84527580  0.89385807    -0.13200
H309        H  0.38598544  0.86718467  0.93035068     0.12900
H310        H  0.08730799  0.90560717  0.92652311     0.12900
H311        H  0.08379229  0.86749152  0.88106475     0.12900
H312        H  0.38594496  0.82486244  0.88545560     0.12900
C313        C  0.43301731  0.87518167  0.07325920    -0.13200
C314        C  0.48688760  0.88872031  0.05862894     0.08900
C315        C  0.05008225  0.87033886  0.07099575    -0.13200
C316        C  0.05491748  0.85485484  0.09756462    -0.13200
C317        C  0.49404812  0.85341387  0.11218388     0.08900
C318        C  0.43655578  0.85765995  0.09974429    -0.13200
H319        H  0.38811872  0.87981626  0.06447473     0.12900
H320        H  0.09102673  0.87139246  0.05898062     0.14300
H321        H  0.09894170  0.84187588  0.10505595     0.12900
H322        H  0.39420120  0.84667701  0.11037156     0.12900
C323        C  0.04246337  0.60566720  0.08004913    -0.13200
C324        C  0.48042422  0.60640739  0.06344347     0.08900
C325        C  0.42785620  0.63114928  0.07413915    -0.13200
C326        C  0.42639340  0.64735168  0.10095853    -0.13200
C327        C  0.47703527  0.63778881  0.11750455     0.08900
C328        C  0.04322580  0.62277026  0.10661943    -0.13200
H329        H  0.08539207  0.59453117  0.07109836     0.12900
H330        H  0.38840610  0.63868677  0.06172536     0.12900
H331        H  0.38698186  0.66993929  0.10844292     0.12900
H332        H  0.08708439  0.62655771  0.11691317     0.12900
C333        C  0.39570069  0.05556275  0.42363326    -0.13200
C334        C  0.40497561  0.99818377  0.43645770     0.08900
C335        C  0.39650744  0.94121267  0.42204393    -0.13200
C336        C  0.37899065  0.94151742  0.39554185    -0.13200
C337        C  0.36889416  0.99875426  0.38275043     0.08900
C338        C  0.37758703  0.05582827  0.39711140    -0.13200
H339        H  0.40294834  0.10040087  0.43403466     0.12900
H340        H  0.40461833  0.89625124  0.43107928     0.12900
H341        H  0.37171047  0.89648996  0.38528271     0.12900
H342        H  0.36896755  0.10061187  0.38805254     0.12900
C343        C  0.13923274  0.55384499  0.39137989    -0.13200
C344        C  0.16180203  0.98424856  0.38790880     0.08900
C345        C  0.14349541  0.92777156  0.40110981    -0.13200
C346        C  0.12527347  0.92953151  0.42753570    -0.13200
C347        C  0.12592702  0.98770366  0.44127443     0.08900
C348        C  0.11910146  0.55825483  0.41728545    -0.13200
H349        H  0.14302265  0.59654295  0.37959892     0.12900
H350        H  0.14269000  0.88250407  0.39097665     0.12900
H351        H  0.10859539  0.88568321  0.43688138     0.12900
H352        H  0.10592996  0.60359716  0.42447459     0.12900
C353        C  0.38758853  0.00175292  0.26495474    -0.16300
C354        C  0.44763714  0.00999735  0.27252718    -0.31500
H355        H  0.37608440  0.99183741  0.24441260     0.12700
H356        H  0.45664633  0.51714715  0.28847647     0.13300
C357        C  0.10428979  0.97094514  0.27399273    -0.16300
C358        C  0.06465186  0.01653768  0.26961629    -0.31500
H359        H  0.09205582  0.92259919  0.26771073     0.12700
H360        H  0.07357865  0.56289583  0.27596343     0.13300
C361        C  0.15434810  0.94425347  0.60556456    -0.13200
C362        C  0.15666500  0.00000698  0.62095257     0.08900
C363        C  0.13745858  0.05578012  0.60959680    -0.13200
C364        C  0.11712127  0.05607575  0.58346162    -0.13200
C365        C  0.11512686  0.00055867  0.56799607     0.08900
C366        C  0.13342511  0.94443981  0.57939369    -0.13200
H367        H  0.17023433  0.90083981  0.61350988     0.12900
H368        H  0.13925801  0.09969367  0.62076062     0.12900
H369        H  0.10177936  0.09975054  0.57551791     0.12900
H370        H  0.13162774  0.90075815  0.56807318     0.12900
C371        C  0.38022392  0.06643014  0.60417581    -0.13200
C372        C  0.36882004  0.01034565  0.61866914     0.08900
C373        C  0.37390960  0.95177224  0.60588036    -0.13200
C374        C  0.39017115  0.94922593  0.57937121    -0.13200
C375        C  0.40234335  0.00517744  0.56491864     0.08900
C376        C  0.39704342  0.06388722  0.57761869    -0.13200
H377        H  0.37541020  0.11229103  0.61324744     0.12900
H378        H  0.33402280  0.39268386  0.60815363     0.12900
H379        H  0.39484180  0.90320764  0.57041290     0.12900
H380        H  0.40710390  0.10795535  0.56719623     0.12900
C381        C  0.50112849  0.54547877  0.76265326    -0.16300
C382        C  0.50161443  0.60798935  0.75715070    -0.31500
H383        H  0.49773403  0.53096674  0.78315839     0.12700
H384        H  0.93659516  0.60343632  0.74542416     0.13300
C385        C  0.97576654  0.88378583  0.76342196    -0.16300
C386        C  0.52180528  0.93778347  0.76646013    -0.31500
H387        H  0.93238071  0.88769538  0.75317306     0.12700
H388        H  0.55965281  0.93668093  0.78052565     0.13300
C389        C  0.07270136  0.00331669  0.72921811    -0.16300
C390        C  0.13188264  0.00486850  0.73777666    -0.31500
H391        H  0.05981444  0.44878898  0.71312415     0.12700
H392        H  0.14202359  0.00049463  0.75862179     0.13300
C393        C  0.46151474  0.99427417  0.73192938    -0.16300
C394        C  0.40960811  0.02484654  0.73579196    -0.31500
H395        H  0.46219903  0.96150393  0.71534801     0.12700
H396        H  0.37850085  0.48192113  0.75117708     0.13300
C397        C  0.00172269  0.49241806  0.74370508    -0.02400
O398        O  0.70011366  0.43197548  0.64604958    -0.74300
O399        O  0.81678133  0.43620666  0.70286107    -0.74300
O400        O  0.69003816  0.42333564  0.69896140    -0.74400
O401        O  0.82187142  0.44503494  0.64963377    -0.74400
O402        O  0.82254812  0.06594872  0.65516503    -0.74400
O403        O  0.69727692  0.04259819  0.70841608    -0.74300
O404        O  0.82450872  0.06293270  0.70937944    -0.74300
O405        O  0.70115421  0.04734373  0.65523315    -0.74400
Ni406      Ni  0.75736321  0.43043613  0.67464612     1.25400
Ni407      Ni  0.76127258  0.05850887  0.68252076     1.25400
C408        C  0.68309880  0.48429345  0.63690877     0.87900
C409        C  0.83593704  0.48958419  0.71310115     0.87800
C410        C  0.66291171  0.47173044  0.70687609     0.87800
C411        C  0.83758091  0.50076660  0.64107610     0.88000
O412        O  0.68944503  0.43684340  0.29147421    -0.74300
O413        O  0.81608769  0.45666653  0.34363976    -0.74300
O414        O  0.69449902  0.44159931  0.34488836    -0.74400
O415        O  0.81598223  0.45366330  0.29032519    -0.74400
O416        O  0.81424329  0.05453617  0.29280850    -0.74400
O417        O  0.69685617  0.04185492  0.34883545    -0.74300
O418        O  0.81838350  0.05596185  0.34688754    -0.74300
O419        O  0.68566880  0.03860197  0.29549495    -0.74400
Ni420      Ni  0.75421140  0.44359818  0.31724544     1.25400
Ni421      Ni  0.75370941  0.05153427  0.32055468     1.25400
C422        C  0.66218380  0.48501332  0.28363219     0.87900
C423        C  0.82941580  0.51123426  0.35403120     0.87800
C424        C  0.67564695  0.49278351  0.35461082     0.87800
C425        C  0.83547752  0.50841120  0.28178586     0.88000
O426        O  0.54087891  0.44953687  0.02451776    -0.74300
O427        O  0.53232102  0.07223347  0.97131826    -0.74300
O428        O  0.53189514  0.06497687  0.02541313    -0.74400
O429        O  0.54237009  0.45221784  0.97064981    -0.74400
O430        O  0.94938601  0.43505440  0.97002728    -0.74400
O431        O  0.94216493  0.05582531  0.02672105    -0.74300
O432        O  0.94204168  0.06054085  0.97182475    -0.74300
O433        O  0.94951396  0.43002313  0.02432309    -0.74400
Ni434      Ni  0.54181459  0.51354593  0.99822063     1.25400
Ni435      Ni  0.93968791  0.49367918  0.99840394     1.25400
C436        C  0.00208701  0.42250137  0.03483955     0.87900
C437        C  0.99398801  0.08010640  0.96190245     0.87800
C438        C  0.99370194  0.07171755  0.03816347     0.87800
C439        C  0.00210642  0.42819116  0.95969908     0.88000
O440        O  0.95805565  0.31036095  0.15230712    -0.74300
O441        O  0.95714185  0.19383146  0.21013670    -0.74300
O442        O  0.96626358  0.32568588  0.20534477    -0.74400
O443        O  0.94987674  0.18526079  0.15615291    -0.74400
O444        O  0.54144288  0.17443332  0.15321916    -0.74400
O445        O  0.56633820  0.31860039  0.19893553    -0.74300
O446        O  0.55439677  0.18763959  0.20628196    -0.74300
O447        O  0.55238997  0.29889280  0.14664647    -0.74400
Ni448      Ni  0.95416670  0.25360878  0.18151934     1.25400
Ni449      Ni  0.55724862  0.24467465  0.17657628     1.25400
C450        C  0.00868974  0.32446850  0.14026821     0.87900
C451        C  0.00791158  0.17296861  0.21805732     0.87800
C452        C  0.02031726  0.35244825  0.20974614     0.87800
C453        C  0.99878006  0.16689797  0.14539564     0.88000
C454        C  0.00018287  0.50816770  0.25159644    -0.02400
O455        O  0.97163261  0.31257840  0.78909994    -0.74300
O456        O  0.95606936  0.18346707  0.84223299    -0.74300
O457        O  0.96299568  0.30881452  0.84241909    -0.74400
O458        O  0.96468682  0.18215203  0.78803178    -0.74400
O459        O  0.56544937  0.19094764  0.79154990    -0.74400
O460        O  0.55944873  0.31425534  0.84664136    -0.74300
O461        O  0.55173895  0.18910867  0.84464137    -0.74300
O462        O  0.57335364  0.32154314  0.79417623    -0.74400
Ni463      Ni  0.96017770  0.24644927  0.81498931     1.25400
Ni464      Ni  0.56611993  0.25380228  0.81903047     1.25400
C465        C  0.52601180  0.34566856  0.78452165     0.87900
C466        C  0.00480155  0.16912535  0.85450167     0.87800
C467        C  0.01348612  0.32675483  0.85424496     0.87800
C468        C  0.01592584  0.16057612  0.78135007     0.88000
O469        O  0.96434795  0.05974908  0.47289273    -0.74300
O470        O  0.57391668  0.04586590  0.52895119    -0.74300
O471        O  0.57586886  0.04320217  0.47491057    -0.74400
O472        O  0.95937873  0.06508075  0.52751082    -0.74400
O473        O  0.94381886  0.45873455  0.52425423    -0.74400
O474        O  0.55083129  0.43958118  0.46867889    -0.74300
O475        O  0.55280131  0.43673029  0.52281428    -0.74300
O476        O  0.94102465  0.45856344  0.46986987    -0.74400
Ni477      Ni  0.02249805  0.06018294  0.50153781     1.25400
Ni478      Ni  0.00243095  0.45350432  0.49676518     1.25400
C479        C  0.92888407  0.51174204  0.45974150     0.87900
C480        C  0.57526888  0.48862820  0.53335409     0.87800
C481        C  0.57187846  0.49231218  0.45874848     0.87800
C482        C  0.93471328  0.51152841  0.53553369     0.88000
C483        C  0.02908280  0.41715274  0.22163765    -0.16300
C484        C  0.98925587  0.44191294  0.23835691    -0.31500
H485        H  0.57330414  0.43868838  0.21405888     0.12700
H486        H  0.94807586  0.41226292  0.24339155     0.13300
C487        C  0.00706055  0.12326627  0.23875049    -0.16300
C488        C  0.00295408  0.06028850  0.23288589    -0.31500
H489        H  0.50424846  0.13438954  0.25813671     0.12700
H490        H  0.99940547  0.04627341  0.21225817     0.13300
C491        C  0.54122196  0.12128005  0.92104060    -0.13200
C492        C  0.99632205  0.10882017  0.93531267     0.08900
C493        C  0.94214797  0.12128260  0.92166801    -0.13200
C494        C  0.94410505  0.13749042  0.89490554    -0.13200
C495        C  0.00017552  0.14087378  0.88115534     0.08900
C496        C  0.54477899  0.13652588  0.89444190    -0.13200
H497        H  0.58365062  0.11432697  0.93149957     0.12900
H498        H  0.89814176  0.11760634  0.93156142     0.12900
H499        H  0.90190836  0.14864044  0.88514224     0.12900
H500        H  0.58998262  0.14322346  0.88564742     0.12900
C501        C  0.95124321  0.38378104  0.91867508    -0.13200
C502        C  0.00543401  0.39895698  0.93324552     0.08900
C503        C  0.55296343  0.39236846  0.92195056    -0.13200
C504        C  0.55686697  0.37372607  0.89570123    -0.13200
C505        C  0.01107414  0.35897623  0.88011574     0.08900
C506        C  0.95402146  0.36422507  0.89242785    -0.13200
H507        H  0.90648064  0.38784110  0.92742675     0.12900
H508        H  0.59517922  0.40167395  0.93315065     0.12900
H509        H  0.60189479  0.36703825  0.88765435     0.12900
H510        H  0.91128529  0.35150889  0.88201767     0.12900
C511        C  0.94990663  0.37123163  0.07363833    -0.13200
C512        C  0.00472426  0.39105902  0.06067084     0.08900
C513        C  0.54983475  0.38659055  0.07248284    -0.13200
C514        C  0.55225609  0.36382128  0.09819033    -0.13200
C515        C  0.00707749  0.35295457  0.11383944     0.08900
C516        C  0.95104620  0.35263105  0.09994552    -0.13200
H517        H  0.90579578  0.37160065  0.06367810     0.12900
H518        H  0.59261975  0.40216053  0.06296915     0.14300
H519        H  0.59681621  0.36085640  0.10752359     0.12900
H520        H  0.90804004  0.33682035  0.10923299     0.12900
C521        C  0.53382426  0.09317212  0.07926799    -0.13200
C522        C  0.99436051  0.09767794  0.06546880     0.08900
C523        C  0.93938485  0.11064055  0.07819743    -0.13200
C524        C  0.93980363  0.12871019  0.10485707    -0.13200
C525        C  0.99509512  0.13364538  0.11948928     0.08900
C526        C  0.53384958  0.10694782  0.10614875    -0.13200
H527        H  0.57564659  0.07769704  0.07069068     0.12900
H528        H  0.89604546  0.10700992  0.06754600     0.12900
H529        H  0.89712854  0.14102824  0.11372711     0.12900
H530        H  0.57635121  0.10433285  0.11715367     0.12900
C531        C  0.88571147  0.56959867  0.42143762    -0.13200
C532        C  0.89850225  0.51222385  0.43357892     0.08900
C533        C  0.89199150  0.45594193  0.41869950    -0.13200
C534        C  0.87347131  0.45679075  0.39239435    -0.13200
C535        C  0.86001969  0.51382486  0.38021074     0.08900
C536        C  0.86623909  0.57033357  0.39504859    -0.13200
H537        H  0.89143281  0.61400175  0.43222852     0.12900
H538        H  0.90277718  0.41110792  0.42715777     0.12900
H539        H  0.86839491  0.41212153  0.38176611     0.12900
H540        H  0.85503049  0.61485682  0.38643723     0.12900
C541        C  0.65646367  0.04423906  0.40081024    -0.13200
C542        C  0.64424699  0.49131259  0.38033172     0.08900
C543        C  0.63633193  0.43458881  0.39464598    -0.13200
C544        C  0.61534854  0.43507489  0.42061332    -0.13200
C545        C  0.60233216  0.49234095  0.43284797     0.08900
C546        C  0.63737512  0.04417486  0.42693134    -0.13200
H547        H  0.67140484  0.08921242  0.39195174     0.12900
H548        H  0.64741381  0.38995927  0.38596895     0.12900
H549        H  0.60880903  0.39051404  0.43102623     0.12900
H550        H  0.63610245  0.08925850  0.43709416     0.12900
C551        C  0.88700960  0.51299913  0.26280040    -0.16300
C552        C  0.94667986  0.51511152  0.27078686    -0.31500
H553        H  0.87580362  0.50898165  0.24195916     0.12700
H554        H  0.95924501  0.02092015  0.29390661     0.13300
C555        C  0.60521789  0.47261001  0.26748201    -0.16300
C556        C  0.56199599  0.51487808  0.26422530    -0.31500
H557        H  0.59685492  0.42448566  0.26033331     0.12700
H558        H  0.57314446  0.06077907  0.27815842     0.13300
C559        C  0.63828893  0.42777186  0.59705820    -0.13200
C560        C  0.65223241  0.48467140  0.61102150     0.08900
C561        C  0.64403639  0.54263259  0.59858649    -0.13200
C562        C  0.62244525  0.54380081  0.57273489    -0.13200
C563        C  0.60807251  0.48700144  0.55877993     0.08900
C564        C  0.61622969  0.42892807  0.57118967    -0.13200
H565        H  0.64494010  0.38237952  0.60601475     0.12900
H566        H  0.65527348  0.58734231  0.60866455     0.12900
H567        H  0.61562710  0.58932439  0.56392795     0.12900
H568        H  0.60449796  0.38432837  0.56110255     0.12900
C569        C  0.87177208  0.56373355  0.60125810    -0.13200
C570        C  0.87079584  0.50696879  0.61572374     0.08900
C571        C  0.89110698  0.45261852  0.60349732    -0.13200
C572        C  0.90951448  0.45411655  0.57723459    -0.13200
C573        C  0.90868494  0.51015930  0.56244252     0.08900
C574        C  0.89094448  0.56539674  0.57491214    -0.13200
H575        H  0.85553451  0.60624622  0.60995735     0.12900
H576        H  0.86935554  0.91624753  0.61434877     0.12900
H577        H  0.92505885  0.41119181  0.56859677     0.12900
H578        H  0.89132299  0.60967172  0.56424057     0.12900
C579        C  0.01818050  0.04855146  0.76766670    -0.16300
C580        C  0.01644351  0.11015233  0.76105100    -0.31500
H581        H  0.02066266  0.03698817  0.78850197     0.12700
H582        H  0.51358627  0.12707313  0.74080434     0.13300
C583        C  0.53526863  0.40682722  0.77068673    -0.16300
C584        C  0.99274955  0.43340838  0.76132394    -0.31500
H585        H  0.57728190  0.43601918  0.77503609     0.12700
H586        H  0.95114832  0.42851039  0.77306089     0.13300
C587        C  0.56350460  0.50485789  0.72573566    -0.16300
C588        C  0.60423831  0.46028542  0.72146986    -0.31500
H589        H  0.57967173  0.05240624  0.72075672     0.12700
H590        H  0.59299477  0.41149141  0.72710550     0.13300
C591        C  0.94623499  0.49167391  0.72469993    -0.16300
C592        C  0.88690919  0.49167311  0.73255635    -0.31500
H593        H  0.95485405  0.49001222  0.70361461     0.12700
H594        H  0.90520215  0.05763967  0.74963398     0.13300
C595        C  0.01649586  0.99419152  0.74739817    -0.02400
O596        O  0.70838517  0.94271534  0.65383544    -0.74300
O597        O  0.83442051  0.95876289  0.70736071    -0.74300
O598        O  0.70775093  0.93845531  0.70753354    -0.74400
O599        O  0.82967589  0.96132828  0.65430317    -0.74400
O600        O  0.81874934  0.55003732  0.65245466    -0.74400
O601        O  0.68506929  0.52815871  0.70161073    -0.74300
O602        O  0.81264591  0.54109859  0.70623803    -0.74300
O603        O  0.69707670  0.53704039  0.64880688    -0.74400
Ni604      Ni  0.77026527  0.94664430  0.68109550     1.25400
Ni605      Ni  0.75342963  0.54286047  0.67779059     1.25400
C606        C  0.68867721  0.99342205  0.64411547     0.87900
C607        C  0.85226981  0.01409610  0.71621398     0.87800
C608        C  0.67962462  0.98597782  0.71555433     0.87800
C609        C  0.84138115  0.01610805  0.64416748     0.88000
O610        O  0.69146919  0.93383063  0.29601308    -0.74300
O611        O  0.82287161  0.95099609  0.34665484    -0.74300
O612        O  0.70141412  0.93684807  0.34956556    -0.74400
O613        O  0.81843280  0.94945728  0.29308467    -0.74400
O614        O  0.81084225  0.55862936  0.28940003    -0.74400
O615        O  0.68881394  0.54642997  0.34365064    -0.74300
O616        O  0.81059921  0.56153467  0.34351288    -0.74300
O617        O  0.68254589  0.54150163  0.29037475    -0.74400
Ni618      Ni  0.75866523  0.93914012  0.32093760     1.25400
Ni619      Ni  0.74820032  0.55589853  0.31627389     1.25400
C620        C  0.66416181  0.98252062  0.28864182     0.87900
C621        C  0.83754588  0.00538663  0.35705624     0.87800
C622        C  0.68466240  0.98821519  0.35994547     0.87800
C623        C  0.83801456  0.00432861  0.28463592     0.88000
O624        O  0.53475011  0.94087991  0.02205336    -0.74300
O625        O  0.53600745  0.57616531  0.97160563    -0.74300
O626        O  0.53383658  0.57360235  0.02586043    -0.74400
O627        O  0.53441022  0.94761078  0.96805526    -0.74400
O628        O  0.93942615  0.93532500  0.96995435    -0.74400
O629        O  0.93760297  0.55340775  0.02712348    -0.74300
O630        O  0.93709441  0.55824589  0.97218056    -0.74300
O631        O  0.94038320  0.93096575  0.02443927    -0.74400
Ni632      Ni  0.53685854  0.00690344  0.99669190     1.25400
Ni633      Ni  0.93727186  0.99554829  0.99821683     1.25400
C634        C  0.99188746  0.91620839  0.03415782     0.87900
C635        C  0.98673676  0.58178400  0.96149072     0.87800
C636        C  0.98770749  0.57658243  0.03800129     0.87800
C637        C  0.99010604  0.92365323  0.95885317     0.88000
O638        O  0.95638752  0.81593797  0.15354441    -0.74300
O639        O  0.95577240  0.69660785  0.21017371    -0.74300
O640        O  0.96760927  0.82831188  0.20671348    -0.74400
O641        O  0.94583861  0.69063787  0.15628417    -0.74400
O642        O  0.53800381  0.68462135  0.15199860    -0.74400
O643        O  0.56473139  0.82335685  0.20018826    -0.74300
O644        O  0.55173051  0.69192853  0.20484369    -0.74300
O645        O  0.54962130  0.80935939  0.14742559    -0.74400
Ni646      Ni  0.95277040  0.75783341  0.18224087     1.25400
Ni647      Ni  0.55462816  0.75224586  0.17639586     1.25400
C648        C  0.00636183  0.82814788  0.14080844     0.87900
C649        C  0.00638335  0.67457227  0.21752735     0.87800
C650        C  0.02227564  0.85370616  0.21097397     0.87800
C651        C  0.99388680  0.67102877  0.14525851     0.88000
C652        C  0.00292851  0.00785871  0.25392633    -0.02400
O653        O  0.92753951  0.80228797  0.78952445    -0.74300
O654        O  0.92865042  0.67472375  0.84272564    -0.74300
O655        O  0.93051182  0.79993798  0.84317886    -0.74400
O656        O  0.92575351  0.67347186  0.78869934    -0.74400
O657        O  0.54686946  0.68494285  0.78723742    -0.74400
O658        O  0.53761550  0.80571361  0.84328661    -0.74300
O659        O  0.54424468  0.68147196  0.84124860    -0.74300
O660        O  0.53874416  0.81425962  0.79008310    -0.74400
Ni661      Ni  0.92451727  0.73725697  0.81574371     1.25400
Ni662      Ni  0.54556273  0.74685000  0.81514170     1.25400
C663        C  0.48612861  0.83001029  0.78189859     0.87900
C664        C  0.98030363  0.66269263  0.85308438     0.87800
C665        C  0.98257813  0.81996311  0.85319240     0.87800
C666        C  0.97606669  0.65368440  0.78004384     0.88000
O667        O  0.94895437  0.56430953  0.47042689    -0.74300
O668        O  0.56428109  0.54243091  0.52363045    -0.74300
O669        O  0.56149635  0.54530404  0.46961661    -0.74400
O670        O  0.95398415  0.56444214  0.52511325    -0.74400
O671        O  0.94287632  0.95979332  0.52809045    -0.74400
O672        O  0.56252046  0.93762216  0.47512256    -0.74300
O673        O  0.56147864  0.94023412  0.52936257    -0.74300
O674        O  0.94875991  0.95441063  0.47384693    -0.74400
Ni675      Ni  0.01231960  0.56679058  0.49674756     1.25400
Ni676      Ni  0.00513383  0.94740741  0.50272452     1.25400
C677        C  0.94163725  0.00760273  0.46257549     0.87900
C678        C  0.58375695  0.99261643  0.53954889     0.87800
C679        C  0.58574374  0.98915262  0.46488410     0.87800
C680        C  0.93507001  0.01442850  0.53807983     0.88000
C681        C  0.03266169  0.91699778  0.22403621    -0.16300
C682        C  0.99257390  0.94150857  0.24072953    -0.31500
H683        H  0.57336807  0.94058061  0.21839166     0.12700
H684        H  0.95104591  0.91204887  0.24534648     0.13300
C685        C  0.00520153  0.62376463  0.23755941    -0.16300
C686        C  0.00035737  0.56124382  0.23097071    -0.31500
H687        H  0.49921383  0.63258884  0.25532949     0.12700
H688        H  0.99655138  0.54825642  0.21022893     0.13300
C689        C  0.54184585  0.62957397  0.92120610    -0.13200
C690        C  0.98434482  0.60797993  0.93449355     0.08900
C691        C  0.92792702  0.60891607  0.92088892    -0.13200
C692        C  0.92651603  0.62267919  0.89394067    -0.13200
C693        C  0.98149759  0.63542409  0.87990745     0.08900
C694        C  0.54539238  0.64103107  0.89415267    -0.13200
H695        H  0.58350271  0.63634767  0.93297881     0.12900
H696        H  0.88480462  0.59799036  0.93096096     0.12900
H697        H  0.88226269  0.62470569  0.88424161     0.12900
H698        H  0.58900778  0.65924957  0.88606050     0.12900
C699        C  0.93189538  0.87651606  0.91987296    -0.13200
C700        C  0.98851428  0.89396535  0.93231638     0.08900
C701        C  0.53871319  0.89543699  0.91701293    -0.13200
C702        C  0.53846949  0.87248577  0.89116746    -0.13200
C703        C  0.98430981  0.85229016  0.87918095     0.08900
C704        C  0.92982340  0.85595421  0.89364329    -0.13200
H705        H  0.88899306  0.87926831  0.93032477     0.12900
H706        H  0.58171562  0.91567000  0.92535722     0.12900
H707        H  0.58160526  0.87394587  0.88061976     0.12900
H708        H  0.88546266  0.84139889  0.88491440     0.12900
C709        C  0.94191075  0.88571494  0.07674147    -0.13200
C710        C  0.99359734  0.88620740  0.06029410     0.08900
C711        C  0.54426796  0.88340448  0.07099865    -0.13200
C712        C  0.54778427  0.86603340  0.09741772    -0.13200
C713        C  0.00335853  0.85468989  0.11405057     0.08900
C714        C  0.94673771  0.87016648  0.10334314    -0.13200
H715        H  0.89810750  0.89942843  0.06929014     0.12900
H716        H  0.58677636  0.89447436  0.06049006     0.14300
H717        H  0.59276741  0.86205985  0.10622441     0.12900
H718        H  0.90594549  0.86957391  0.11543566     0.12900
C719        C  0.52997349  0.59519460  0.08022610    -0.13200
C720        C  0.98735958  0.60201633  0.06534891     0.08900
C721        C  0.93241933  0.61407565  0.07827981    -0.13200
C722        C  0.93333559  0.63242788  0.10497199    -0.13200
C723        C  0.98904946  0.63778811  0.11936672     0.08900
C724        C  0.52809815  0.61020755  0.10689889    -0.13200
H725        H  0.57009246  0.57366499  0.07282936     0.12900
H726        H  0.88892193  0.60993885  0.06771592     0.12900
H727        H  0.89085907  0.64446954  0.11405289     0.12900
H728        H  0.56793300  0.60248952  0.11906545     0.12900
C729        C  0.90138344  0.06517673  0.42335248    -0.13200
C730        C  0.91249496  0.00795926  0.43600507     0.08900
C731        C  0.90306831  0.95098946  0.42165226    -0.13200
C732        C  0.88261218  0.95100436  0.39550417    -0.13200
C733        C  0.87029878  0.00792671  0.38291107     0.08900
C734        C  0.88009109  0.06512871  0.39716264    -0.13200
H735        H  0.90918954  0.11004304  0.43368782     0.12900
H736        H  0.91242854  0.90614592  0.43048757     0.12900
H737        H  0.87487942  0.90585594  0.38537461     0.12900
H738        H  0.87005950  0.10970913  0.38828261     0.12900
C739        C  0.63052569  0.54840645  0.39251430    -0.13200
C740        C  0.65727441  0.98720267  0.38649282     0.08900
C741        C  0.63971436  0.92978481  0.39912868    -0.13200
C742        C  0.61984217  0.92977006  0.42531038    -0.13200
C743        C  0.61791284  0.98713223  0.43939403     0.08900
C744        C  0.61004753  0.54894671  0.41847375    -0.13200
H745        H  0.63680787  0.59310068  0.38218085     0.12900
H746        H  0.64117611  0.88497944  0.38877817     0.12900
H747        H  0.60436774  0.88505490  0.43425111     0.12900
H748        H  0.59905116  0.59368816  0.42708121     0.12900
C749        C  0.88902262  0.00921884  0.26529190    -0.16300
C750        C  0.94900709  0.01479820  0.27299478    -0.31500
H751        H  0.87745165  0.00189290  0.24459813     0.12700
H752        H  0.95676866  0.51884185  0.29177327     0.13300
C753        C  0.60620927  0.97122317  0.27268551    -0.16300
C754        C  0.56363136  0.01433181  0.26906933    -0.31500
H755        H  0.59678383  0.92306807  0.26554239     0.12700
H756        H  0.57074405  0.56103093  0.27359254     0.13300
C757        C  0.64739670  0.93450213  0.60393959    -0.13200
C758        C  0.65747170  0.99161735  0.61814950     0.08900
C759        C  0.64631872  0.04890306  0.60565221    -0.13200
C760        C  0.62577385  0.04923142  0.57961331    -0.13200
C761        C  0.61514411  0.99222698  0.56542776     0.08900
C762        C  0.62608510  0.93477458  0.57786354    -0.13200
H763        H  0.65672221  0.88971575  0.61283606     0.12900
H764        H  0.65464438  0.09394638  0.61580836     0.12900
H765        H  0.61680399  0.09424890  0.57082503     0.12900
H766        H  0.61746522  0.88996683  0.56756110     0.12900
C767        C  0.87975304  0.07599882  0.60374536    -0.13200
C768        C  0.86978984  0.01886358  0.61771791     0.08900
C769        C  0.87756598  0.96141672  0.60451439    -0.13200
C770        C  0.89419003  0.96058285  0.57817089    -0.13200
C771        C  0.90526461  0.01725961  0.56415801     0.08900
C772        C  0.89812686  0.07522872  0.57723348    -0.13200
H773        H  0.87289659  0.12095514  0.61318599     0.12900
H774        H  0.89082553  0.40806024  0.61396741     0.12900
H775        H  0.90030230  0.91506299  0.56905487     0.12900
H776        H  0.90754016  0.11985016  0.56711240     0.12900
C777        C  0.00714587  0.55139684  0.76188530    -0.16300
C778        C  0.97230002  0.60171351  0.76028487    -0.31500
H779        H  0.04171662  0.55177473  0.77746493     0.12700
H780        H  0.50428024  0.62399532  0.73687046     0.13300
C781        C  0.48133962  0.88611819  0.76486892    -0.16300
C782        C  0.02078740  0.93143472  0.76243851    -0.31500
H783        H  0.44090730  0.88604157  0.75227759     0.12700
H784        H  0.06174755  0.92693666  0.77444360     0.13300
C785        C  0.57710246  0.01059009  0.73319765    -0.16300
C786        C  0.62531743  0.97344284  0.73275992    -0.31500
H787        H  0.57445933  0.55187972  0.71770227     0.12700
H788        H  0.62367534  0.92944870  0.74370368     0.13300
C789        C  0.95754386  0.99060151  0.73010559    -0.16300
C790        C  0.90662374  0.02256414  0.73404471    -0.31500
H791        H  0.95625976  0.95656868  0.71389986     0.12700
H792        H  0.87593039  0.49465775  0.75333383     0.13300
loop_ 
_geom_bond_atom_site_label_1 
_geom_bond_atom_site_label_2 
_geom_bond_distance 
_geom_bond_site_symmetry_2 
_ccdc_geom_bond_type 
C1          C188   1.539       .  S
C1          C195   1.533       .  S
C1          C381   1.533       .  S
C1          C587   1.551       .  S
O2          Ni10   1.899       .  S
O2           C12   1.279       .  A
O3          Ni10   1.923       .  S
O3           C13   1.281       .  A
O4          Ni10   1.931       .  S
O4           C14   1.285       .  A
O5          Ni10   1.925       .  S
O5           C15   1.284       .  A
O6          Ni11   1.923       .  S
O6          C213   1.283       .  A
O7          Ni11   1.930       .  S
O7          C212   1.282       .  A
O8          Ni11   1.926       .  S
O8          C211   1.282       .  A
O9          Ni11   1.908       .  S
O9          C210   1.281       .  A
Ni10       Ni209   2.389       .  S
Ni11       Ni208   2.388   1_545  S
C12         O207   1.282       .  A
C12         C164   1.473       .  S
C13         O206   1.281       .  A
C13         C196   1.474       .  S
C14         O205   1.281       .  A
C14         C192   1.485       .  S
C15         O204   1.280       .  A
C15         C174   1.481       .  S
O16         Ni24   1.911       .  S
O16          C26   1.279       .  A
O17         Ni24   1.894       .  S
O17          C27   1.278       .  A
O18         Ni24   1.922       .  S
O18          C28   1.283       .  A
O19         Ni24   1.928       .  S
O19          C29   1.283       .  A
O20         Ni25   1.931       .  S
O20         C227   1.282   1_545  A
O21         Ni25   1.903       .  S
O21         C226   1.280   1_545  A
O22         Ni25   1.923       .  S
O22         C225   1.284   1_545  A
O23         Ni25   1.943       .  S
O23         C224   1.286   1_545  A
Ni24       Ni223   2.388       .  S
Ni25       Ni222   2.387   1_545  S
C26         O221   1.286       .  A
C26         C159   1.486       .  S
C27         O220   1.284       .  A
C27         C139   1.479       .  S
C28         O219   1.278       .  A
C28         C146   1.475       .  S
C29         O218   1.281       .  A
C29         C155   1.480       .  S
O30         Ni38   1.910   1_554  S
O30         C436   1.281       .  A
O31        Ni236   1.905       .  S
O31         C437   1.280   1_455  A
O32        Ni236   1.919   1_554  S
O32         C438   1.283   1_455  A
O33         Ni38   1.909       .  S
O33         C439   1.280       .  A
O34         Ni39   1.911       .  S
O34          C43   1.281       .  A
O35        Ni237   1.921   1_544  S
O35          C42   1.282       .  A
O36        Ni237   1.925   1_545  S
O36          C41   1.283       .  A
O37         Ni39   1.919   1_554  S
O37          C40   1.283       .  A
Ni38        O229   1.912       .  S
Ni38        O230   1.910   1_556  S
Ni38       Ni435   2.387   1_455  S
Ni39        O233   1.917   1_556  S
Ni39        O234   1.917       .  S
Ni39       Ni434   2.389       .  S
C40         O426   1.280       .  A
C40         C116   1.478       .  S
C41         O427   1.279       .  A
C41          C96   1.481       .  S
C42         O428   1.281       .  A
C42         C126   1.482       .  S
C43         O429   1.280       .  A
C43         C106   1.473       .  S
O44         Ni52   1.913       .  S
O44          C54   1.281       .  A
O45         Ni52   1.935       .  S
O45          C55   1.283       .  A
O46         Ni52   1.940       .  S
O46          C56   1.286       .  A
O47         Ni52   1.923       .  S
O47          C57   1.283       .  A
O48         Ni53   1.909       .  S
O48         C453   1.281   1_455  A
O49         Ni53   1.921       .  S
O49         C452   1.281       .  A
O50         Ni53   1.934       .  S
O50         C451   1.283       .  A
O51         Ni53   1.912       .  S
O51         C450   1.281       .  A
Ni52       Ni449   2.386       .  S
Ni53       Ni448   2.387   1_455  S
C54         O447   1.282       .  A
C54         C119   1.477       .  S
C55         O446   1.283       .  A
C55          C91   1.489       .  S
C56         O445   1.281       .  A
C56          C87   1.494       .  S
C57         O444   1.280       .  A
C57         C129   1.482       .  S
C58          C88   1.554       .  S
C58         C156   1.538       .  S
C58         C290   1.540       .  S
C58         C556   1.551       .  S
O59         Ni67   1.926       .  S
O59         C465   1.283       .  A
O60         Ni67   1.921       .  S
O60          C70   1.282       .  A
O61         Ni67   1.911       .  S
O61          C71   1.281       .  A
O62         Ni67   1.925       .  S
O62          C72   1.282       .  A
O63         Ni68   1.924       .  S
O63         C468   1.280       .  A
O64         Ni68   1.917       .  S
O64         C467   1.282       .  A
O65         Ni68   1.907       .  S
O65         C466   1.281       .  A
O66         Ni68   1.916       .  S
O66          C69   1.281       .  A
Ni67       Ni464   2.390       .  S
Ni68       Ni463   2.388   1_455  S
C69         O455   1.282   1_455  A
C69         C187   1.478       .  S
C70         O461   1.280       .  A
C70          C99   1.480       .  S
C71         O460   1.280       .  A
C71         C109   1.472       .  S
C72         O459   1.280       .  A
C72         C184   1.473       .  S
O73         Ni81   1.915       .  S
O73         C281   1.281   1_545  A
O74        Ni477   1.913       .  S
O74         C282   1.282       .  A
O75        Ni477   1.914       .  S
O75         C283   1.283   1_545  A
O76         Ni81   1.912       .  S
O76         C284   1.281       .  A
O77         Ni82   1.915       .  S
O77          C86   1.281       .  A
O78        Ni478   1.902       .  S
O78          C85   1.278       .  A
O79        Ni478   1.907       .  S
O79          C84   1.281       .  A
O80         Ni82   1.911       .  S
O80          C83   1.282       .  A
Ni81        O470   1.910       .  S
Ni81        O471   1.908       .  S
Ni81       Ni280   2.387   1_545  S
Ni82        O474   1.912       .  S
Ni82        O475   1.910       .  S
Ni82       Ni279   2.388       .  S
C83         O271   1.279       .  A
C83         C136   1.477       .  S
C84         O272   1.280       .  A
C84         C167   1.472       .  S
C85         O273   1.283       .  A
C85         C149   1.474       .  S
C86         O274   1.282       .  A
C86         C177   1.481       .  S
C87          C88   1.348       .  D
C87         H485   1.087       .  S
C88          H90   1.088       .  S
H89         C483   1.087       .  S
C91          C92   1.359       .  D
C91         H489   1.085       .  S
C92         C256   1.543       .  S
C92          H94   1.087       .  S
H93         C487   1.085       .  S
C95         C100   1.395       .  A
C95         C492   1.407   1_455  A
C95         H101   1.083       .  S
C96          C97   1.407       .  A
C96         C491   1.406       .  A
C97          C98   1.404       .  A
C97         H102   1.084       .  S
C98          C99   1.408       .  A
C98         H103   1.082       .  S
C99         C496   1.404       .  A
C100        C495   1.405       .  A
C100        H104   1.083       .  S
C105        C106   1.405       .  A
C105        C110   1.396       .  A
C105        H111   1.083       .  S
C106        C503   1.404       .  A
C107        C108   1.398       .  A
C107        C502   1.407       .  A
C107        H112   1.083       .  S
C108        C505   1.405       .  A
C108        H113   1.083       .  S
C109        C110   1.405       .  A
C109        C504   1.404       .  A
C110        H114   1.083       .  S
C115        C116   1.405       .  A
C115        C120   1.398       .  A
C115        H121   1.083       .  S
C116        C513   1.407       .  A
C117        C118   1.396       .  A
C117        C512   1.406       .  A
C117        H122   1.083       .  S
C118        C515   1.404       .  A
C118        H123   1.083       .  S
C119        C120   1.407       .  A
C119        C514   1.403       .  A
C120        H124   1.083       .  S
C125        C130   1.398       .  A
C125        C522   1.406   1_455  A
C125        H131   1.084       .  S
C126        C127   1.406       .  A
C126        C521   1.406       .  A
C127        C128   1.404       .  A
C127        H132   1.083       .  S
C128        C129   1.409       .  A
C128        H133   1.083       .  S
C129        C526   1.404       .  A
C130        C525   1.407   1_455  A
C130        H134   1.082       .  S
C135        C136   1.408       .  A
C135        C140   1.402       .  A
C135        H141   1.083       .  S
C136        C137   1.403       .  A
C137        C138   1.391       .  A
C137        H142   1.083       .  S
C138        C139   1.406       .  A
C138        H143   1.083       .  S
C139        C140   1.406       .  A
C140        H144   1.083       .  S
C145        C150   1.391       .  A
C145        C344   1.406   1_545  A
C145        H151   1.083       .  S
C146        C147   1.404       .  A
C146        C343   1.406       .  A
C147        C148   1.397       .  A
C147        H152   1.082       .  S
C148        C149   1.407       .  A
C148        H153   1.084       .  S
C149        C348   1.403       .  A
C150        C347   1.402   1_545  A
C150        H154   1.083       .  S
C155        C156   1.356       .  D
C155        H157   1.086       .  S
C156        H356   1.088       .  S
H158        C354   1.088       .  S
C159        C160   1.354       .  D
C159        H161   1.080       .  S
C160        C454   1.552       .  S
C160        H360   1.086       .  S
H162        C358   1.087       .  S
C163        C164   1.406       .  A
C163        C168   1.392       .  A
C163        H169   1.083       .  S
C164        C165   1.404       .  A
C165        C166   1.395       .  A
C165        H170   1.083       .  S
C166        C167   1.406       .  A
C166        H171   1.083       .  S
C167        C168   1.403       .  A
C168        H172   1.083       .  S
C173        C174   1.406       .  A
C173        C178   1.394       .  A
C173        H179   1.083       .  S
C174        C175   1.406       .  A
C175        C176   1.402       .  A
C175        H378   1.083       .  S
C176        C177   1.407       .  A
C176        H181   1.083       .  S
C177        C178   1.404       .  A
C178        H182   1.083       .  S
H180        C373   1.083       .  S
C183        C199   1.534   1_545  S
C183        C184   1.352       .  D
C183        H185   1.088       .  S
C184        H582   1.085       .  S
H186        C580   1.086       .  S
C187        C584   1.355   1_455  D
C187        H189   1.083       .  S
C188        C583   1.344       .  D
C188        H190   1.087       .  S
C191        C397   1.545       .  S
C191        C192   1.354       .  D
C191        H391   1.088       .  S
C192        H194   1.084       .  S
H193        C389   1.088       .  S
C195        C196   1.355       .  D
C195        H197   1.088       .  S
C196        H396   1.086       .  S
H198        C394   1.083       .  S
C199        C386   1.544       .  S
C199        C785   1.544   1_565  S
C199        C393   1.547       .  S
O200       Ni208   1.921       .  S
O200        C210   1.283   1_565  A
O201       Ni208   1.932       .  S
O201        C211   1.283   1_565  A
O202       Ni208   1.931       .  S
O202        C212   1.283   1_565  A
O203       Ni208   1.906       .  S
O203        C213   1.280   1_565  A
O204       Ni209   1.903       .  S
O205       Ni209   1.922       .  S
O206       Ni209   1.922       .  S
O207       Ni209   1.915       .  S
C210        C362   1.481       .  S
C211        C394   1.483       .  S
C212        C390   1.484       .  S
C213        C372   1.482       .  S
O214       Ni222   1.922       .  S
O214        C224   1.282       .  A
O215       Ni222   1.905       .  S
O215        C225   1.280       .  A
O216       Ni222   1.923       .  S
O216        C226   1.283       .  A
O217       Ni222   1.933       .  S
O217        C227   1.284       .  A
O218       Ni223   1.927       .  S
O219       Ni223   1.899       .  S
O220       Ni223   1.926       .  S
O221       Ni223   1.940       .  S
C224        C357   1.493       .  S
C225        C337   1.481       .  S
C226        C344   1.479       .  S
C227        C353   1.486   1_565  S
O228       Ni236   1.902   1_564  S
O228        C634   1.279   1_455  A
O229        C635   1.282   1_455  A
O230        C636   1.282   1_455  A
O231       Ni236   1.916   1_565  S
O231        C637   1.282   1_455  A
O232       Ni237   1.918       .  S
O232        C241   1.282       .  A
O233        C240   1.281       .  A
O234        C239   1.283       .  A
O235       Ni237   1.921   1_554  S
O235        C238   1.283       .  A
Ni236      Ni633   2.387   1_445  S
Ni237      Ni632   2.387   1_565  S
C238        O624   1.279       .  A
C238        C314   1.479       .  S
C239        O625   1.280       .  A
C239        C294   1.479       .  S
C240        O626   1.281       .  A
C240        C324   1.474       .  S
C241        O627   1.281       .  A
C241        C304   1.480       .  S
O242       Ni250   1.914       .  S
O242        C252   1.281       .  A
O243       Ni250   1.932       .  S
O243        C253   1.283       .  A
O244       Ni250   1.942       .  S
O244        C254   1.287       .  A
O245       Ni250   1.923       .  S
O245        C255   1.283       .  A
O246       Ni251   1.906       .  S
O246        C651   1.281   1_455  A
O247       Ni251   1.922       .  S
O247        C650   1.281       .  A
O248       Ni251   1.929       .  S
O248        C649   1.283       .  A
O249       Ni251   1.911       .  S
O249        C648   1.281       .  A
Ni250      Ni647   2.387       .  S
Ni251      Ni646   2.387   1_455  S
C252        O645   1.282       .  A
C252        C317   1.480       .  S
C253        O644   1.282       .  A
C253        C289   1.484       .  S
C254        O643   1.281       .  A
C254        C285   1.493       .  S
C255        O642   1.279       .  A
C255        C327   1.475       .  S
C256        C286   1.552   1_545  S
C256        C354   1.543       .  S
C256        C754   1.559       .  S
O257       Ni265   1.918       .  S
O257        C663   1.280       .  A
O258       Ni265   1.904       .  S
O258        C268   1.279       .  A
O259       Ni265   1.923       .  S
O259        C269   1.284       .  A
O260       Ni265   1.927       .  S
O260        C270   1.282       .  A
O261       Ni266   1.933       .  S
O261        C666   1.283   1_455  A
O262       Ni266   1.916       .  S
O262        C665   1.282   1_455  A
O263       Ni266   1.913       .  S
O263        C664   1.282   1_455  A
O264       Ni266   1.930       .  S
O264        C267   1.283   1_455  A
Ni265      Ni662   2.389       .  S
Ni266      Ni661   2.388   1_455  S
C267        O653   1.280       .  A
C267        C385   1.480       .  S
C268        O659   1.283       .  A
C268        C297   1.479       .  S
C269        O658   1.280       .  A
C269        C307   1.480       .  S
C270        O657   1.281       .  A
C270        C382   1.476       .  S
O271       Ni279   1.909       .  S
O272       Ni675   1.905       .  S
O273       Ni675   1.919       .  S
O274       Ni279   1.913       .  S
O275       Ni280   1.915       .  S
O275        C284   1.283   1_565  A
O276       Ni676   1.909       .  S
O276        C283   1.279       .  A
O277       Ni676   1.921       .  S
O277        C282   1.282   1_565  A
O278       Ni280   1.913       .  S
O278        C281   1.282       .  A
Ni279       O668   1.904       .  S
Ni279       O669   1.910       .  S
Ni280       O672   1.914       .  S
Ni280       O673   1.913       .  S
C281        C334   1.481       .  S
C282        C365   1.480       .  S
C283        C347   1.478       .  S
C284        C375   1.481       .  S
C285        C286   1.348       .  D
C285        H683   1.086       .  S
C286        H288   1.087       .  S
H287        C681   1.086       .  S
C289        C290   1.361       .  D
C289        H687   1.085       .  S
C290        H292   1.087       .  S
H291        C685   1.086       .  S
C293        C690   1.406   1_455  A
C293        C298   1.397       .  A
C293        H299   1.083       .  S
C294        C689   1.406       .  A
C294        C295   1.406       .  A
C295        C296   1.398       .  A
C295        H300   1.083       .  S
C296        C297   1.406       .  A
C296        H301   1.083       .  S
C297        C694   1.405       .  A
C298        C693   1.405   1_455  A
C298        H302   1.083       .  S
C303        C304   1.406       .  A
C303        C308   1.399       .  A
C303        H309   1.083       .  S
C304        C701   1.406       .  A
C305        C700   1.407   1_455  A
C305        C306   1.399       .  A
C305        H310   1.083       .  S
C306        C703   1.406   1_455  A
C306        H311   1.083       .  S
C307        C702   1.406       .  A
C307        C308   1.406       .  A
C308        H312   1.083       .  S
C313        C314   1.405       .  A
C313        C318   1.399       .  A
C313        H319   1.083       .  S
C314        C711   1.407       .  A
C315        C710   1.405   1_455  A
C315        C316   1.394       .  A
C315        H320   1.083       .  S
C316        C713   1.405       .  A
C316        H321   1.083       .  S
C317        C712   1.404       .  A
C317        C318   1.407       .  A
C318        H322   1.083       .  S
C323        C720   1.406   1_455  A
C323        C328   1.394       .  A
C323        H329   1.083       .  S
C324        C719   1.405       .  A
C324        C325   1.404       .  A
C325        C326   1.403       .  A
C325        H330   1.084       .  S
C326        C327   1.409       .  A
C326        H331   1.082       .  S
C327        C724   1.402       .  A
C328        C723   1.405   1_455  A
C328        H332   1.083       .  S
C333        C334   1.406   1_545  A
C333        C338   1.400       .  A
C333        H339   1.083       .  S
C334        C335   1.405       .  A
C335        C336   1.396       .  A
C335        H340   1.083       .  S
C336        C337   1.407       .  A
C336        H341   1.083       .  S
C337        C338   1.406   1_565  A
C338        H342   1.083       .  S
C343        C348   1.393       .  A
C343        H349   1.084       .  S
C344        C345   1.405       .  A
C345        C346   1.402       .  A
C345        H350   1.083       .  S
C346        C347   1.409       .  A
C346        H351   1.083       .  S
C348        H352   1.082       .  S
C353        C354   1.359       .  D
C353        H355   1.086   1_545  S
C357        C358   1.358   1_565  D
C357        H359   1.083       .  S
C358        C652   1.556       .  S
C361        C362   1.408   1_565  A
C361        C366   1.401       .  A
C361        H367   1.083       .  S
C362        C363   1.405       .  A
C363        C364   1.396       .  A
C363        H368   1.083       .  S
C364        C365   1.406       .  A
C364        H369   1.083       .  S
C365        C366   1.405   1_545  A
C366        H370   1.083       .  S
C371        C372   1.406       .  A
C371        C376   1.401       .  A
C371        H377   1.083       .  S
C372        C373   1.407   1_545  A
C373        C374   1.395       .  A
C374        C375   1.404   1_565  A
C374        H379   1.083       .  S
C375        C376   1.408       .  A
C376        H380   1.083       .  S
C381        C382   1.351       .  D
C381        H383   1.088       .  S
C382        H780   1.086       .  S
H384        C778   1.082       .  S
C385        C782   1.354   1_655  D
C385        H387   1.084       .  S
C386        C781   1.354       .  D
C386        H388   1.088       .  S
C389        C595   1.539   1_545  S
C389        C390   1.355       .  D
C390        H392   1.085       .  S
C393        C394   1.357   1_565  D
C393        H395   1.088       .  S
C397        C777   1.544       .  S
C397        C584   1.540   1_455  S
C397        C591   1.540   1_455  S
O398       Ni406   1.909       .  S
O398        C408   1.280       .  A
O399       Ni406   1.921       .  S
O399        C409   1.280       .  A
O400       Ni406   1.921       .  S
O400        C410   1.282       .  A
O401       Ni406   1.909       .  S
O401        C411   1.281       .  A
O402       Ni407   1.931       .  S
O402        C609   1.284       .  A
O403       Ni407   1.935       .  S
O403        C608   1.285   1_545  A
O404       Ni407   1.928       .  S
O404        C607   1.282       .  A
O405       Ni407   1.901       .  S
O405        C606   1.279   1_545  A
Ni406      Ni605   2.388       .  S
Ni407      Ni604   2.387   1_545  S
C408        O603   1.281       .  A
C408        C560   1.472       .  S
C409        O602   1.283       .  A
C409        C592   1.479       .  S
C410        O601   1.283       .  A
C410        C588   1.486       .  S
C411        O600   1.283       .  A
C411        C570   1.482       .  S
O412       Ni420   1.914       .  S
O412        C422   1.280       .  A
O413       Ni420   1.898       .  S
O413        C423   1.278       .  A
O414       Ni420   1.918       .  S
O414        C424   1.282       .  A
O415       Ni420   1.925       .  S
O415        C425   1.282       .  A
O416       Ni421   1.933       .  S
O416        C623   1.282       .  A
O417       Ni421   1.904       .  S
O417        C622   1.280   1_545  A
O418       Ni421   1.932       .  S
O418        C621   1.285       .  A
O419       Ni421   1.949       .  S
O419        C620   1.287   1_545  A
Ni420      Ni619   2.387       .  S
Ni421      Ni618   2.386   1_545  S
C422        O617   1.286       .  A
C422        C555   1.489       .  S
C423        O616   1.285       .  A
C423        C535   1.481       .  S
C424        O615   1.280       .  A
C424        C542   1.477       .  S
C425        O614   1.283       .  A
C425        C551   1.482       .  S
O426       Ni434   1.905   1_554  S
O427       Ni632   1.900       .  S
O428       Ni632   1.909   1_554  S
O429       Ni434   1.903       .  S
O430       Ni435   1.917       .  S
O430        C439   1.283   1_655  A
O431       Ni633   1.920   1_544  S
O431        C438   1.282       .  A
O432       Ni633   1.922   1_545  S
O432        C437   1.283       .  A
O433       Ni435   1.909   1_554  S
O433        C436   1.281   1_655  A
Ni434       O625   1.906       .  S
Ni434       O626   1.904   1_556  S
Ni435       O629   1.926   1_556  S
Ni435       O630   1.915       .  S
C436        C512   1.476       .  S
C437        C492   1.482       .  S
C438        C522   1.487       .  S
C439        C502   1.479       .  S
O440       Ni448   1.910       .  S
O440        C450   1.281   1_655  A
O441       Ni448   1.934       .  S
O441        C451   1.283   1_655  A
O442       Ni448   1.941       .  S
O442        C452   1.286   1_655  A
O443       Ni448   1.926       .  S
O443        C453   1.284       .  A
O444       Ni449   1.905       .  S
O445       Ni449   1.924       .  S
O446       Ni449   1.934       .  S
O447       Ni449   1.915       .  S
C450        C515   1.474       .  S
C451        C487   1.489       .  S
C452        C483   1.491       .  S
C453        C525   1.486       .  S
C454        C484   1.552   1_455  S
C454        C686   1.538       .  S
C454        C552   1.538   1_455  S
O455       Ni463   1.927       .  S
O456       Ni463   1.922       .  S
O456        C466   1.283   1_655  A
O457       Ni463   1.909       .  S
O457        C467   1.281   1_655  A
O458       Ni463   1.931       .  S
O458        C468   1.283   1_655  A
O459       Ni464   1.920       .  S
O460       Ni464   1.905       .  S
O461       Ni464   1.902       .  S
O462       Ni464   1.912       .  S
O462        C465   1.279       .  A
C465        C583   1.476       .  S
C466        C495   1.483       .  S
C467        C505   1.479       .  S
C468        C580   1.479       .  S
O469       Ni477   1.921   1_655  S
O469        C677   1.282       .  A
O470        C678   1.281   1_545  A
O471        C679   1.281   1_545  A
O472       Ni477   1.919   1_655  S
O472        C680   1.281       .  A
O473       Ni478   1.905   1_655  S
O473        C482   1.280       .  A
O474        C481   1.281       .  A
O475        C480   1.281       .  A
O476       Ni478   1.913   1_655  S
O476        C479   1.283       .  A
Ni477      Ni676   2.387   1_545  S
Ni478      Ni675   2.388       .  S
C479        O667   1.280       .  A
C479        C532   1.480       .  S
C480        O668   1.280       .  A
C480        C563   1.472       .  S
C481        O669   1.281       .  A
C481        C545   1.476       .  S
C482        O670   1.283       .  A
C482        C573   1.482       .  S
C483        C484   1.348   1_455  D
C484        H486   1.088       .  S
C487        C488   1.359       .  D
C488        C652   1.543       .  S
C488        H490   1.087   1_455  S
C491        C496   1.391       .  A
C491        H497   1.082       .  S
C492        C493   1.406       .  A
C493        C494   1.403       .  A
C493        H498   1.083       .  S
C494        C495   1.408   1_655  A
C494        H499   1.083       .  S
C496        H500   1.084       .  S
C501        C502   1.404   1_655  A
C501        C506   1.396       .  A
C501        H507   1.083       .  S
C503        C504   1.392       .  A
C503        H508   1.083       .  S
C504        H509   1.083       .  S
C505        C506   1.406   1_455  A
C506        H510   1.083       .  S
C511        C512   1.405   1_655  A
C511        C516   1.394       .  A
C511        H517   1.083       .  S
C513        C514   1.395       .  A
C513        H518   1.083       .  S
C514        H519   1.083       .  S
C515        C516   1.405   1_455  A
C516        H520   1.083       .  S
C521        C526   1.393       .  A
C521        H527   1.083       .  S
C522        C523   1.408       .  A
C523        C524   1.404       .  A
C523        H528   1.082       .  S
C524        C525   1.407       .  A
C524        H529   1.084       .  S
C526        H530   1.083       .  S
C531        C532   1.408       .  A
C531        C536   1.403       .  A
C531        H537   1.083       .  S
C532        C533   1.403       .  A
C533        C534   1.393       .  A
C533        H538   1.083       .  S
C534        C535   1.407       .  A
C534        H539   1.083       .  S
C535        C536   1.406       .  A
C536        H540   1.083       .  S
C541        C740   1.405   1_545  A
C541        C546   1.392       .  A
C541        H547   1.083       .  S
C542        C739   1.405       .  A
C542        C543   1.405       .  A
C543        C544   1.398       .  A
C543        H548   1.083       .  S
C544        C545   1.405       .  A
C544        H549   1.083       .  S
C545        C744   1.405       .  A
C546        C743   1.404   1_545  A
C546        H550   1.083       .  S
C551        C552   1.356       .  D
C551        H553   1.085       .  S
C552        H752   1.087       .  S
H554        C750   1.088       .  S
C555        C556   1.354       .  D
C555        H557   1.080       .  S
C556        H756   1.086       .  S
H558        C754   1.088       .  S
C559        C560   1.405       .  A
C559        C564   1.396       .  A
C559        H565   1.083       .  S
C560        C561   1.403       .  A
C561        C562   1.392       .  A
C561        H566   1.083       .  S
C562        C563   1.405       .  A
C562        H567   1.083       .  S
C563        C564   1.405       .  A
C564        H568   1.083       .  S
C569        C570   1.409       .  A
C569        C574   1.403       .  A
C569        H575   1.082       .  S
C570        C571   1.404       .  A
C571        C572   1.394       .  A
C571        H774   1.083       .  S
C572        C573   1.407       .  A
C572        H577   1.083       .  S
C573        C574   1.405       .  A
C574        H578   1.083       .  S
H576        C769   1.083       .  S
C579        C595   1.536   1_545  S
C579        C580   1.349       .  D
C579        H581   1.088       .  S
C583        H585   1.086       .  S
C584        H586   1.086       .  S
C587        C588   1.358       .  D
C587        H787   1.087       .  S
C588        H590   1.083       .  S
H589        C785   1.087       .  S
C591        C592   1.355       .  D
C591        H593   1.088       .  S
C592        H792   1.085       .  S
H594        C790   1.083       .  S
C595        C782   1.542       .  S
C595        C789   1.547   1_455  S
O596       Ni604   1.922       .  S
O596        C606   1.283       .  A
O597       Ni604   1.927       .  S
O597        C607   1.283   1_565  A
O598       Ni604   1.917       .  S
O598        C608   1.280       .  A
O599       Ni604   1.894       .  S
O599        C609   1.279   1_565  A
O600       Ni605   1.922       .  S
O601       Ni605   1.932       .  S
O602       Ni605   1.932       .  S
O603       Ni605   1.907       .  S
C606        C758   1.478       .  S
C607        C790   1.485       .  S
C608        C786   1.484       .  S
C609        C768   1.481       .  S
O610       Ni618   1.924       .  S
O610        C620   1.282       .  A
O611       Ni618   1.908       .  S
O611        C621   1.280   1_565  A
O612       Ni618   1.919       .  S
O612        C622   1.282       .  A
O613       Ni618   1.930       .  S
O613        C623   1.283   1_565  A
O614       Ni619   1.934       .  S
O615       Ni619   1.906       .  S
O616       Ni619   1.929       .  S
O617       Ni619   1.942       .  S
C620        C753   1.499       .  S
C621        C733   1.488       .  S
C622        C740   1.477       .  S
C623        C749   1.486       .  S
O624       Ni632   1.902   1_564  S
O627       Ni632   1.912   1_565  S
O628       Ni633   1.915       .  S
O628        C637   1.282       .  A
O629        C636   1.283       .  A
O630        C635   1.282       .  A
O631       Ni633   1.916   1_554  S
O631        C634   1.282       .  A
C634        C710   1.475       .  S
C635        C690   1.483       .  S
C636        C720   1.486       .  S
C637        C700   1.482       .  S
O638       Ni646   1.908       .  S
O638        C648   1.280   1_655  A
O639       Ni646   1.929       .  S
O639        C649   1.282   1_655  A
O640       Ni646   1.941       .  S
O640        C650   1.286   1_655  A
O641       Ni646   1.929       .  S
O641        C651   1.284       .  A
O642       Ni647   1.899       .  S
O643       Ni647   1.922       .  S
O644       Ni647   1.929       .  S
O645       Ni647   1.915       .  S
C648        C713   1.475       .  S
C649        C685   1.482       .  S
C650        C681   1.491       .  S
C651        C723   1.486       .  S
C652        C682   1.551   1_445  S
C652        C750   1.541   1_455  S
O653       Ni661   1.916       .  S
O654       Ni661   1.914       .  S
O654        C664   1.281       .  A
O655       Ni661   1.914       .  S
O655        C665   1.282       .  A
O656       Ni661   1.920       .  S
O656        C666   1.281       .  A
O657       Ni662   1.925       .  S
O658       Ni662   1.906       .  S
O659       Ni662   1.918       .  S
O660       Ni662   1.928       .  S
O660        C663   1.284       .  A
C663        C781   1.481       .  S
C664        C693   1.482       .  S
C665        C703   1.481       .  S
C666        C778   1.481       .  S
O667       Ni675   1.912   1_655  S
O670       Ni675   1.925   1_655  S
O671       Ni676   1.907   1_655  S
O671        C680   1.282   1_565  A
O672        C679   1.281       .  A
O673        C678   1.281       .  A
O674       Ni676   1.919   1_655  S
O674        C677   1.283   1_565  A
C677        C730   1.487       .  S
C678        C761   1.477       .  S
C679        C743   1.477       .  S
C680        C771   1.481       .  S
C681        C682   1.349   1_455  D
C682        H684   1.087       .  S
C685        C686   1.358       .  D
C686        H688   1.087   1_455  S
C689        C694   1.397       .  A
C689        H695   1.083       .  S
C690        C691   1.407       .  A
C691        C692   1.400       .  A
C691        H696   1.083       .  S
C692        C693   1.407       .  A
C692        H697   1.083       .  S
C694        H698   1.083       .  S
C699        C700   1.406       .  A
C699        C704   1.397       .  A
C699        H705   1.083       .  S
C701        C702   1.396       .  A
C701        H706   1.083       .  S
C702        H707   1.083       .  S
C703        C704   1.406       .  A
C704        H708   1.083       .  S
C709        C710   1.405       .  A
C709        C714   1.396       .  A
C709        H715   1.083       .  S
C711        C712   1.395       .  A
C711        H716   1.083       .  S
C712        H717   1.083       .  S
C713        C714   1.405   1_455  A
C714        H718   1.082       .  S
C719        C724   1.390       .  A
C719        H725   1.083       .  S
C720        C721   1.407       .  A
C721        C722   1.407       .  A
C721        H726   1.083       .  S
C722        C723   1.409       .  A
C722        H727   1.083       .  S
C724        H728   1.084       .  S
C729        C730   1.408       .  A
C729        C734   1.405       .  A
C729        H735   1.083       .  S
C730        C731   1.405   1_545  A
C731        C732   1.397       .  A
C731        H736   1.083       .  S
C732        C733   1.407   1_565  A
C732        H737   1.083       .  S
C733        C734   1.407       .  A
C734        H738   1.083       .  S
C739        C744   1.394       .  A
C739        H745   1.083       .  S
C740        C741   1.405       .  A
C741        C742   1.400       .  A
C741        H746   1.083       .  S
C742        C743   1.407       .  A
C742        H747   1.083       .  S
C744        H748   1.083       .  S
C749        C750   1.358       .  D
C749        H751   1.086       .  S
C753        C754   1.359   1_565  D
C753        H755   1.083       .  S
C757        C758   1.405       .  A
C757        C762   1.400       .  A
C757        H763   1.083       .  S
C758        C759   1.406   1_565  A
C759        C760   1.393       .  A
C759        H764   1.083       .  S
C760        C761   1.404   1_545  A
C760        H765   1.083       .  S
C761        C762   1.406       .  A
C762        H766   1.083       .  S
C767        C768   1.407       .  A
C767        C772   1.407       .  A
C767        H773   1.082       .  S
C768        C769   1.405   1_545  A
C769        C770   1.388       .  A
C770        C771   1.403   1_565  A
C770        H775   1.083       .  S
C771        C772   1.409       .  A
C772        H776   1.083       .  S
C777        C778   1.353   1_455  D
C777        H779   1.088       .  S
C781        H783   1.084       .  S
C782        H784   1.087       .  S
C785        C786   1.357   1_545  D
C786        H788   1.084       .  S
C789        C790   1.356   1_565  D
C789        H791   1.088       .  S
