geometry optimzed in LAMMPS
_audit_creation_date              2020-11-30 
_audit_creation_method            'lammps2cif' 
_symmetry_space_group_name_H-M    'P1' 
_symmetry_Int_Tables_number       1 
_symmetry_cell_setting            triclinic 
loop_ 
_symmetry_equiv_pos_as_xyz 
  x,y,z 
_cell_length_a                    45.88800179 
_cell_length_b                    45.93400080957863 
_cell_length_c                    34.19536990199265 
_cell_angle_alpha                 90.93376164835874 
_cell_angle_beta                  89.53916227868655 
_cell_angle_gamma                 90.16553171840715 
loop_ 
_atom_site_label 
_atom_site_type_symbol 
_atom_site_fract_x 
_atom_site_fract_y 
_atom_site_fract_z 
_atom_site_charge 
C1          C  0.17909758  0.50091851  0.16274200     0.02800
C2          C  0.16406243  0.50113820  0.19877608    -0.13400
C3          C  0.13362218  0.99259897  0.19994103     0.00300
C4          C  0.11792857  0.99092337  0.16504036    -0.11900
C5          C  0.13255666  0.99213674  0.12904848     0.02800
C6          C  0.16294806  0.50070616  0.12790191    -0.11300
H7          H  0.17599872  0.50125402  0.22599997     0.08400
H8          H  0.09432709  0.98971272  0.16590396     0.05900
H9          H  0.17375032  0.50058881  0.09968521     0.05700
C10         C  0.38336021  0.50223995  0.16646070     0.02800
C11         C  0.39838830  0.50212735  0.13042253    -0.13400
C12         C  0.42891087  0.50230368  0.12925919     0.00300
C13         C  0.44468548  0.50263899  0.16408710    -0.11900
C14         C  0.43000356  0.50271851  0.20006371     0.02800
C15         C  0.39951592  0.50251014  0.20129513    -0.12100
H16         H  0.38644673  0.50189662  0.10320144     0.08400
H17         H  0.46831584  0.50271481  0.16319274     0.05900
H18         H  0.38871890  0.50247123  0.22951291     0.05700
C19         C  0.03740422  0.14896716  0.16817093     0.02800
C20         C  0.03888140  0.13345366  0.20328434    -0.13400
C21         C  0.04104168  0.10302934  0.20257350     0.00300
C22         C  0.04171213  0.08783068  0.16677626    -0.11900
C23         C  0.03975712  0.10294436  0.13169386     0.02800
C24         C  0.03769590  0.13337772  0.13241249    -0.11300
H25         H  0.03833301  0.14474729  0.23128481     0.08400
H26         H  0.04277278  0.06424409  0.16626203     0.05900
H27         H  0.03610101  0.14482226  0.10504631     0.05700
C28         C  0.03037873  0.35288468  0.16103921     0.02800
C29         C  0.02986234  0.36848087  0.12591350    -0.13400
C30         C  0.03007828  0.39897735  0.12661010     0.00300
C31         C  0.03076520  0.41418002  0.16237722    -0.11900
C32         C  0.03114666  0.39897761  0.19749293     0.02800
C33         C  0.03086257  0.36845764  0.19681800    -0.11300
H34         H  0.02920784  0.35719272  0.09792393     0.08400
H35         H  0.03097108  0.43779335  0.16288287     0.05900
H36         H  0.03116692  0.35692600  0.22421127     0.05700
N37         N  0.09450057  0.00956567  0.04375400    -0.06500
N38         N  0.10976140  0.01829545  0.07433517    -0.58600
N39         N  0.09411616  0.48688558  0.28603718    -0.06200
N40         N  0.10868833  0.47684456  0.25525880    -0.60700
N41         N  0.09561851  0.00976866  0.28695995    -0.05800
N42         N  0.11142685  0.01858566  0.25695928    -0.58600
N43         N  0.09316235  0.48662956  0.04302427    -0.05400
N44         N  0.10723386  0.47646570  0.07341620    -0.61100
C45         C  0.11597737  0.50081105  0.09271667     0.95700
C46         C  0.11795614  0.99360763  0.23745342     0.95500
N47         N  0.01691354  0.43869021  0.28434073    -0.06700
N48         N  0.00687286  0.42420996  0.25360187    -0.59200
N49         N  0.04487764  0.43839754  0.04138830    -0.04800
N50         N  0.05472908  0.42393303  0.07156927    -0.60400
N51         N  0.01620426  0.43845920  0.04142117    -0.06700
N52         N  0.00590180  0.42400553  0.07164622    -0.59400
N53         N  0.04558789  0.43858917  0.28427618    -0.04400
N54         N  0.05569578  0.42399272  0.25345392    -0.60500
Mn55       Mn  0.07022012  0.46186122  0.33029437     1.18400
C56         C  0.03127578  0.41508355  0.23483949     0.97800
C57         C  0.03019807  0.41501993  0.08994464     0.98400
N58         N  0.05191613  0.06226004  0.28760065    -0.06700
N59         N  0.06336670  0.07562137  0.25713700    -0.63000
N60         N  0.02254599  0.06491083  0.04470921    -0.05500
N61         N  0.01365973  0.08045953  0.07534058    -0.63700
N62         N  0.05106504  0.06199850  0.04500615    -0.06200
N63         N  0.06218690  0.07530422  0.07602494    -0.63300
N64         N  0.02338240  0.06506544  0.28793727    -0.05100
N65         N  0.01479727  0.08049034  0.25796442    -0.64000
Mn66       Mn  0.07410954  0.03659332  0.33249657     1.10700
C67         C  0.03991620  0.08696879  0.23920566     0.99000
C68         C  0.03862268  0.08681123  0.09441232     0.99100
N69         N  0.46797361  0.48760155  0.04235915    -0.06200
N70         N  0.45312491  0.47766704  0.07259129    -0.61600
N71         N  0.47094471  0.02167739  0.28586442    -0.05500
N72         N  0.45788809  0.03301620  0.25535977    -0.58300
N73         N  0.46901046  0.48784085  0.28541109    -0.06900
N74         N  0.45475139  0.47800387  0.25452047    -0.61200
N75         N  0.46991851  0.02147119  0.04330783    -0.05800
N76         N  0.45644376  0.03270585  0.07430578    -0.58400
Mn77       Mn  0.49139072  0.46248168  0.33005651     1.20200
Mn78       Mn  0.49613485  0.04413714  0.33216269     1.10100
Cl79       Cl  0.03122879  0.00123844  0.33125550    -0.86300
C80         C  0.44446423  0.50214399  0.09174523     0.96000
C81         C  0.44654349  0.00954255  0.23650301     0.95800
C82         C  0.02899989  0.27803362  0.18191982     0.29400
C83         C  0.02703410  0.25350462  0.20574923    -0.36900
C84         C  0.03059495  0.22644614  0.18671617     0.15400
C85         C  0.03563061  0.22370022  0.14702911     0.21200
C86         C  0.53729127  0.24821028  0.12319491    -0.35000
C87         C  0.03400202  0.27525452  0.14223083     0.15300
O88         O  0.02691074  0.30544433  0.19361877    -0.27100
C89         C  0.03053238  0.32056154  0.16098875     0.05100
C90         C  0.03504538  0.30273513  0.12807337    -0.31900
O91         O  0.03854658  0.19635887  0.13543806    -0.23800
C92         C  0.03543198  0.18121468  0.16811250    -0.03800
C93         C  0.03036367  0.19896068  0.20097834    -0.18200
H94         H  0.02324109  0.25539439  0.23696226     0.19800
H95         H  0.54132567  0.24634900  0.09203120     0.18200
H96         H  0.53848381  0.30886412  0.09808619     0.18100
H97         H  0.02688566  0.19279038  0.23104144     0.14000
C98         C  0.30833892  0.00116773  0.14647289     0.29400
C99         C  0.28359054  0.99828596  0.12287380    -0.36900
C100        C  0.25665348  0.99852952  0.14256642     0.15400
C101        C  0.25421381  0.50155271  0.18274064     0.21200
C102        C  0.27900547  0.50206638  0.20644544    -0.35000
C103        C  0.30589062  0.50192661  0.18669501     0.15300
O104        O  0.33565278  0.00176055  0.13424258    -0.27100
C105        C  0.35102959  0.50197231  0.16701851     0.05100
C106        C  0.33354707  0.50235017  0.20062070    -0.31900
O107        O  0.22692288  0.50159647  0.19497634    -0.23800
C108        C  0.21142933  0.50101353  0.16219286    -0.03800
C109        C  0.22903191  0.99609056  0.12873173    -0.18200
H110        H  0.28521881  0.99604956  0.09137523     0.19800
H111        H  0.27744237  0.50255484  0.23804826     0.18200
H112        H  0.33992132  0.50290080  0.23099040     0.18100
H113        H  0.22272219  0.99325917  0.09851159     0.14000
C114        C  0.17909693  0.50092160  0.49607568     0.02800
C115        C  0.16406167  0.50113714  0.53210972    -0.13400
C116        C  0.13362312  0.99260272  0.53327159     0.00300
C117        C  0.11793018  0.99092425  0.49837044    -0.11900
C118        C  0.13255918  0.99213277  0.46237867     0.02800
C119        C  0.16294732  0.50070990  0.46123563    -0.11300
H120        H  0.17599796  0.50125242  0.55933360     0.08400
H121        H  0.09432865  0.98971529  0.49923341     0.05900
H122        H  0.17374952  0.50059247  0.43301891     0.05700
C123        C  0.38336058  0.50223695  0.49979459     0.02800
C124        C  0.39838894  0.50212844  0.46375653    -0.13400
C125        C  0.42891160  0.50230509  0.46259332     0.00300
C126        C  0.44468600  0.50263748  0.49742145    -0.11900
C127        C  0.43000392  0.50271384  0.53339797     0.02800
C128        C  0.39951624  0.50250495  0.53462907    -0.12100
H129        H  0.38644752  0.50189937  0.43653535     0.08400
H130        H  0.46831643  0.50271354  0.49652735     0.05900
H131        H  0.38871914  0.50246626  0.56284684     0.05700
C132        C  0.03740915  0.14896972  0.50149472     0.02800
C133        C  0.03888608  0.13345847  0.53661009    -0.13400
C134        C  0.04104337  0.10303402  0.53590302     0.00300
C135        C  0.04171134  0.08783298  0.50010771    -0.11900
C136        C  0.03975740  0.10294452  0.46502365     0.02800
C137        C  0.03769903  0.13337805  0.46573823    -0.11300
H138        H  0.03833979  0.14475389  0.56460939     0.08400
H139        H  0.04276991  0.06424624  0.49959629     0.05900
H140        H  0.03610477  0.14482086  0.43837072     0.05700
C141        C  0.03038169  0.35288614  0.49436439     0.02800
C142        C  0.02986399  0.36848469  0.45924113    -0.13400
C143        C  0.03007783  0.39898106  0.45994221     0.00300
C144        C  0.03076396  0.41418131  0.49571117    -0.11900
C145        C  0.03114702  0.39897628  0.53082464     0.02800
C146        C  0.03086518  0.36845640  0.53014531    -0.11300
H147        H  0.02921011  0.35719836  0.43125019     0.08400
H148        H  0.03096836  0.43779466  0.49621994     0.05900
H149        H  0.03117075  0.35692269  0.55753705     0.05700
N150        N  0.09450094  0.00956270  0.37708615    -0.06500
N151        N  0.10976313  0.01829204  0.40766635    -0.58600
N152        N  0.09411598  0.48688023  0.61937118    -0.06200
N153        N  0.10868773  0.47683990  0.58859194    -0.60700
N154        N  0.09562063  0.00977542  0.62029080    -0.05800
N155        N  0.11142842  0.01859169  0.59028910    -0.58600
N156        N  0.09316241  0.48663090  0.37635676    -0.05400
N157        N  0.10723283  0.47646707  0.40674968    -0.61100
C158        C  0.11597675  0.50081242  0.42604994     0.95700
C159        C  0.11795679  0.99361316  0.57078367     0.95500
N160        N  0.01691337  0.43868422  0.61767600    -0.06700
N161        N  0.00687281  0.42420499  0.58693621    -0.59200
N162        N  0.04487705  0.43840054  0.37472085    -0.04800
N163        N  0.05472849  0.42393709  0.40490258    -0.60400
N164        N  0.01620370  0.43846284  0.37475422    -0.06700
N165        N  0.00590113  0.42401071  0.40498044    -0.59400
N166        N  0.04558776  0.43858342  0.61761129    -0.04400
N167        N  0.05569574  0.42398814  0.58678817    -0.60500
Mn168      Mn  0.07022022  0.46185548  0.66362894     1.18400
C169        C  0.03127583  0.41507932  0.56817335     0.97800
C170        C  0.03019744  0.41502565  0.42327905     0.98400
N171        N  0.05191834  0.06226738  0.62093209    -0.06700
N172        N  0.06336875  0.07562842  0.59046810    -0.63000
N173        N  0.02254497  0.06490737  0.37804311    -0.05500
N174        N  0.01365897  0.08045679  0.40867386    -0.63700
N175        N  0.05106405  0.06199530  0.37833942    -0.06200
N176        N  0.06218629  0.07530201  0.40935707    -0.63300
N177        N  0.02338462  0.06507300  0.62126918    -0.05100
N178        N  0.01479934  0.08049765  0.59129616    -0.64000
Mn179      Mn  0.07411193  0.03660060  0.66582769     1.10700
C180        C  0.03991818  0.08697593  0.57253707     0.99000
C181        C  0.03862219  0.08680913  0.42774444     0.99100
N182        N  0.46797366  0.48760427  0.37569207    -0.06200
N183        N  0.45312521  0.47766954  0.40592429    -0.61600
N184        N  0.47094626  0.02168522  0.61919684    -0.05500
N185        N  0.45788783  0.03302441  0.58869382    -0.58300
N186        N  0.46900996  0.48783501  0.61874618    -0.06900
N187        N  0.45475062  0.47799829  0.58785551    -0.61200
N188        N  0.46991822  0.02146758  0.37664316    -0.05800
N189        N  0.45644341  0.03270268  0.40764063    -0.58400
Mn190      Mn  0.49139052  0.46247568  0.66339195     1.20200
Mn191      Mn  0.49613708  0.04414456  0.66549491     1.10100
Cl192      Cl  0.03123105  0.00124582  0.66458685    -0.86300
C193        C  0.44446513  0.50214627  0.42507918     0.96000
C194        C  0.44654187  0.00955095  0.56983812     0.95800
C195        C  0.02900459  0.27803511  0.51523839     0.29400
C196        C  0.02703880  0.25350636  0.53906726    -0.36900
C197        C  0.03060066  0.22644841  0.52003446     0.15400
C198        C  0.03563735  0.22370220  0.48034767     0.21200
C199        C  0.53729839  0.24821252  0.45651350    -0.35000
C200        C  0.03400766  0.27525677  0.47554944     0.15300
O201        O  0.02691451  0.30544511  0.52693863    -0.27100
C202        C  0.03053643  0.32056327  0.49430991     0.05100
C203        C  0.03505052  0.30273805  0.46139337    -0.31900
O204        O  0.03855365  0.19636050  0.46875773    -0.23800
C205        C  0.03543820  0.18121713  0.50143300    -0.03800
C206        C  0.03036902  0.19896370  0.53429760    -0.18200
H207        H  0.02324493  0.25539599  0.57028018     0.19800
H208        H  0.54133388  0.24635145  0.42535003     0.18200
H209        H  0.53849013  0.30886840  0.43140711     0.18100
H210        H  0.02688965  0.19279430  0.56436086     0.14000
C211        C  0.30834125  0.00113167  0.47981128     0.29400
C212        C  0.28359525  0.99820583  0.45621621    -0.36900
C213        C  0.25665629  0.99848604  0.47590364     0.15400
C214        C  0.25421359  0.50153581  0.51607411     0.21200
C215        C  0.27900542  0.50202345  0.53977890    -0.35000
C216        C  0.30589059  0.50190405  0.52002847     0.15300
O217        O  0.33565622  0.00170352  0.46758353    -0.27100
C218        C  0.35102974  0.50196952  0.50035220     0.05100
C219        C  0.33354713  0.50231168  0.53395441    -0.31900
O220        O  0.22692264  0.50156664  0.52830997    -0.23800
C221        C  0.21142886  0.50101810  0.49552642    -0.03800
C222        C  0.22903608  0.99602171  0.46207124    -0.18200
H223        H  0.28522659  0.99591131  0.42472423     0.19800
H224        H  0.27744241  0.50247801  0.57138201     0.18200
H225        H  0.33992129  0.50282752  0.56432445     0.18100
H226        H  0.22272835  0.99313139  0.43185894     0.14000
C227        C  0.17909696  0.50091837  0.82940971     0.02800
C228        C  0.16406194  0.50113913  0.86544390    -0.13400
C229        C  0.13362230  0.99260034  0.86660689     0.00300
C230        C  0.11792867  0.99092693  0.83170597    -0.11900
C231        C  0.13255703  0.99214064  0.79571417     0.02800
C232        C  0.16294735  0.50070425  0.79456973    -0.11300
H233        H  0.17599830  0.50125613  0.89266772     0.08400
H234        H  0.09432715  0.98971750  0.83256939     0.05900
H235        H  0.17374962  0.50058701  0.76635292     0.05700
C236        C  0.38335967  0.50224107  0.83312805     0.02800
C237        C  0.39838795  0.50212748  0.79708998    -0.13400
C238        C  0.42891055  0.50230286  0.79592697     0.00300
C239        C  0.44468495  0.50263768  0.83075503    -0.11900
C240        C  0.43000284  0.50271737  0.86673149     0.02800
C241        C  0.39951520  0.50251040  0.86796263    -0.12100
H242        H  0.38644656  0.50189715  0.76986882     0.08400
H243        H  0.46831532  0.50271280  0.82986091     0.05900
H244        H  0.38871798  0.50247126  0.89618033     0.05700
C245        C  0.03740991  0.14896820  0.83483874     0.02800
C246        C  0.03888691  0.13345400  0.86995133    -0.13400
C247        C  0.04104592  0.10302974  0.86923904     0.00300
C248        C  0.04171549  0.08783176  0.83344139    -0.11900
C249        C  0.03976083  0.10294638  0.79835981     0.02800
C250        C  0.03770081  0.13337969  0.79907968    -0.11300
H251        H  0.03833897  0.14474694  0.89795230     0.08400
H252        H  0.04277514  0.06424513  0.83292621     0.05900
H253        H  0.03610608  0.14482491  0.77171391     0.05700
C254        C  0.03038078  0.35288407  0.82770817     0.02800
C255        C  0.02986311  0.36847977  0.79258227    -0.13400
C256        C  0.03007904  0.39897612  0.79327847     0.00300
C257        C  0.03076683  0.41417919  0.82904503    -0.11900
C258        C  0.03114918  0.39897708  0.86416075     0.02800
C259        C  0.03086561  0.36845725  0.86348652    -0.11300
H260        H  0.02920785  0.35719143  0.76459289     0.08400
H261        H  0.03097243  0.43779255  0.82955022     0.05900
H262        H  0.03117075  0.35692589  0.89088005     0.05700
N263        N  0.09450250  0.00957034  0.71041828    -0.06500
N264        N  0.10976251  0.01830003  0.74100036    -0.58600
N265        N  0.09411614  0.48688498  0.95270522    -0.06200
N266        N  0.10868840  0.47684430  0.92192675    -0.60700
N267        N  0.09561994  0.00977069  0.95362704    -0.05800
N268        N  0.11142779  0.01858741  0.92362570    -0.58600
N269        N  0.09316266  0.48662521  0.70969127    -0.05400
N270        N  0.10723364  0.47646164  0.74008393    -0.61100
C271        C  0.11597676  0.50080723  0.75938440     0.95700
C272        C  0.11795641  0.99360929  0.90411957     0.95500
N273        N  0.01691454  0.43868868  0.95100801    -0.06700
N274        N  0.00687439  0.42420869  0.92026873    -0.59200
N275        N  0.04487744  0.43839429  0.70805562    -0.04800
N276        N  0.05472917  0.42393040  0.73823683    -0.60400
N277        N  0.01620405  0.43845640  0.70808932    -0.06700
N278        N  0.00590184  0.42400360  0.73831521    -0.59400
N279        N  0.04558890  0.43858806  0.95094394    -0.04400
N280        N  0.05569738  0.42399225  0.92012164    -0.60500
Mn281      Mn  0.07022045  0.46185984  0.99696221     1.18400
C282        C  0.03127770  0.41508304  0.90150673     0.97800
C283        C  0.03019833  0.41501811  0.75661308     0.98400
N284        N  0.05191835  0.06226196  0.95426709    -0.06700
N285        N  0.06336962  0.07562198  0.92380295    -0.63000
N286        N  0.02254778  0.06491450  0.71137521    -0.05500
N287        N  0.01366209  0.08046250  0.74200745    -0.63700
N288        N  0.05106690  0.06200269  0.71167065    -0.06200
N289        N  0.06218943  0.07530808  0.74268912    -0.63300
N290        N  0.02338470  0.06506783  0.95460297    -0.05100
N291        N  0.01480020  0.08049179  0.92462899    -0.64000
Mn292      Mn  0.07411069  0.03659583  0.99916356     1.10700
C293        C  0.03991950  0.08696892  0.90587042     0.99000
C294        C  0.03862552  0.08681432  0.76107791     0.99100
N295        N  0.46797361  0.48759891  0.70902759    -0.06200
N296        N  0.45312460  0.47766507  0.73925991    -0.61600
N297        N  0.47094643  0.02168094  0.95252859    -0.05500
N298        N  0.45788969  0.03301977  0.92202402    -0.58300
N299        N  0.46901049  0.48783865  0.95207810    -0.06900
N300        N  0.45475105  0.47800192  0.92118757    -0.61200
N301        N  0.46992012  0.02147439  0.70997515    -0.05800
N302        N  0.45644428  0.03270875  0.74097239    -0.58400
Mn303      Mn  0.49139114  0.46247916  0.99672365     1.20200
Mn304      Mn  0.49613619  0.04414057  0.99882788     1.10100
Cl305      Cl  0.03122961  0.00124150  0.99792113    -0.86300
C306        C  0.44446421  0.50214242  0.75841319     0.96000
C307        C  0.44654458  0.00954613  0.90316772     0.95800
C308        C  0.02900555  0.27803373  0.84859021     0.29400
C309        C  0.02704242  0.25350489  0.87242006    -0.36900
C310        C  0.03060238  0.22644657  0.85338649     0.15400
C311        C  0.03563483  0.22370078  0.81369868     0.21200
C312        C  0.53729374  0.24821063  0.78986426    -0.35000
C313        C  0.03400453  0.27525459  0.80890053     0.15300
O314        O  0.02691647  0.30544435  0.86028911    -0.27100
C315        C  0.03053505  0.32056125  0.82765829     0.05100
C316        C  0.03504590  0.30273486  0.79474257    -0.31900
O317        O  0.03854997  0.19635968  0.80210695    -0.23800
C318        C  0.03543811  0.18121546  0.83478162    -0.03800
C319        C  0.03037245  0.19896115  0.86764844    -0.18200
H320        H  0.02325180  0.25539467  0.90363361     0.19800
H321        H  0.54132633  0.24634942  0.75870006     0.18200
H322        H  0.53848334  0.30886366  0.76475498     0.18100
H323        H  0.02689677  0.19279072  0.89771201     0.14000
C324        C  0.30833951  0.00116469  0.81313926     0.29400
C325        C  0.28359101  0.99828428  0.78954011    -0.36900
C326        C  0.25665405  0.99852646  0.80923294     0.15400
C327        C  0.25421320  0.50156059  0.84940773     0.21200
C328        C  0.27900488  0.50208115  0.87311230    -0.35000
C329        C  0.30589001  0.50193564  0.85336191     0.15300
O330        O  0.33565324  0.00175970  0.80090867    -0.27100
C331        C  0.35102902  0.50197469  0.83368559     0.05100
C332        C  0.33354640  0.50236261  0.86728764    -0.31900
O333        O  0.22692232  0.50160703  0.86164360    -0.23800
C334        C  0.21142868  0.50101455  0.82886032    -0.03800
C335        C  0.22903241  0.99608954  0.79539801    -0.18200
H336        H  0.28521908  0.99605048  0.75804119     0.19800
H337        H  0.27744181  0.50257841  0.90471515     0.18200
H338        H  0.33992054  0.50292218  0.89765731     0.18100
H339        H  0.22272261  0.99326086  0.76517752     0.14000
C340        C  0.17914086  0.99551783  0.16278844     0.02800
C341        C  0.16409050  0.99491392  0.19880238    -0.13400
C342        C  0.13353968  0.50120241  0.19993145     0.00300
C343        C  0.11777175  0.50100883  0.16509975    -0.11900
C344        C  0.13246011  0.50075195  0.12912587     0.02800
C345        C  0.16299597  0.99443880  0.12792628    -0.11300
H346        H  0.17597887  0.99628114  0.22603272     0.08400
H347        H  0.09414146  0.50106270  0.16598756     0.05900
H348        H  0.17376874  0.99572123  0.09976422     0.05700
C349        C  0.38338298  0.00721409  0.16636364     0.02800
C350        C  0.39843771  0.00787514  0.13036140    -0.13400
C351        C  0.42889662  0.01029465  0.12923926     0.00300
C352        C  0.44457962  0.01202981  0.16414555    -0.11900
C353        C  0.42995022  0.01073803  0.20013010     0.02800
C354        C  0.39951810  0.00832584  0.20123410    -0.12100
H355        H  0.38656084  0.00645686  0.10312522     0.08400
H356        H  0.46817839  0.01329754  0.16329044     0.05900
H357        H  0.38874540  0.00697324  0.22938868     0.05700
C358        C  0.03131905  0.64955973  0.16810486     0.02800
C359        C  0.03202433  0.63400028  0.20325354    -0.13400
C360        C  0.03228426  0.60350311  0.20258973     0.00300
C361        C  0.03186743  0.58826963  0.16683468    -0.11900
C362        C  0.03122779  0.60344046  0.13170413     0.02800
C363        C  0.03104944  0.63395736  0.13234621    -0.11300
H364        H  0.03246904  0.64531934  0.23123099     0.08400
H365        H  0.03197704  0.56465651  0.16635338     0.05900
H366        H  0.03055051  0.64546326  0.10494024     0.05700
C367        C  0.02435432  0.85349294  0.16097745     0.02800
C368        C  0.02304595  0.86904760  0.12588530    -0.13400
C369        C  0.02131314  0.89949766  0.12663497     0.00300
C370        C  0.02088894  0.91468108  0.16244624    -0.11900
C371        C  0.02262328  0.89951744  0.19751132     0.02800
C372        C  0.02426602  0.86905669  0.19675867    -0.11300
H373        H  0.02339170  0.85776243  0.09787357     0.08400
H374        H  0.02011148  0.93827953  0.16298733     0.05900
H375        H  0.02569173  0.85756875  0.22411005     0.05700
N376        N  0.09328288  0.51528475  0.04378986    -0.06500
N377        N  0.10742373  0.52525927  0.07470765    -0.58600
N378        N  0.09263754  0.98126527  0.28587104    -0.06200
N379        N  0.10617939  0.97008563  0.25489017    -0.60700
N380        N  0.09430127  0.51553970  0.28680434    -0.05800
N381        N  0.10902204  0.52562604  0.25655150    -0.58600
N382        N  0.09161103  0.98104927  0.04330882    -0.05400
N383        N  0.10472085  0.96976040  0.07380507    -0.61100
C384        C  0.11596210  0.99327828  0.09267397     0.95700
C385        C  0.11797903  0.50123707  0.23743797     0.95500
N386        N  0.01138379  0.94045799  0.28420592    -0.06700
N387        N  0.00024545  0.92712274  0.25322387    -0.59200
N388        N  0.03905968  0.93743935  0.04127710    -0.04800
N389        N  0.04762576  0.92204344  0.07129008    -0.60400
N390        N  0.01052414  0.94023190  0.04157357    -0.06700
N391        N  0.99905212  0.92687935  0.07202642    -0.59400
N392        N  0.03990454  0.93755683  0.28447560    -0.04400
N393        N  0.04877652  0.92199752  0.25384250    -0.60500
Mn394      Mn  0.06650205  0.95848995  0.33035229     1.18400
C395        C  0.02379885  0.91561513  0.23481734     0.97800
C396        C  0.02249043  0.91556356  0.09001354     0.98400
N397        N  0.04622849  0.56399651  0.28774985    -0.06700
N398        N  0.05651656  0.57845990  0.25752083    -0.63000
N399        N  0.01684668  0.56385167  0.04489477    -0.05500
N400        N  0.00672788  0.57844116  0.07571311    -0.63700
N401        N  0.04552118  0.56373601  0.04485881    -0.06200
N402        N  0.05555078  0.57818620  0.07563210    -0.63300
N403        N  0.01755509  0.56406898  0.28781108    -0.05100
N404        N  0.00768960  0.57856374  0.25766796    -0.64000
Mn405      Mn  0.07061857  0.54040214  0.33246164     1.10700
C406        C  0.03220917  0.58747769  0.23927075     0.99000
C407        C  0.03113865  0.58731590  0.09437310     0.99100
N408        N  0.46680813  0.99298207  0.04220998    -0.06200
N409        N  0.45096912  0.98423024  0.07221491    -0.61600
N410        N  0.46946333  0.51649451  0.28613562    -0.05500
N411        N  0.45552149  0.52679370  0.25571622    -0.58300
N412        N  0.46793325  0.99317260  0.28542920    -0.06900
N413        N  0.45263380  0.98450342  0.25485472    -0.61200
N414        N  0.46849647  0.51625220  0.04315795    -0.05800
N415        N  0.45405203  0.52644170  0.07396215    -0.58400
Mn416      Mn  0.48820086  0.96605657  0.33002501     1.20200
Mn417      Mn  0.49266087  0.54102570  0.33221804     1.10100
Cl418      Cl  0.03122015  0.50122466  0.33125121    -0.86300
C419        C  0.44456722  0.00923242  0.09173848     0.96000
C420        C  0.44649245  0.50253094  0.23646294     0.95800
C421        C  0.02539813  0.77872417  0.18198891     0.29400
C422        C  0.02339792  0.75420986  0.20579628    -0.36900
C423        C  0.02697940  0.72716794  0.18678278     0.15400
C424        C  0.03214707  0.72439641  0.14712932     0.21200
C425        C  0.53428278  0.74896247  0.12328901    -0.35000
C426        C  0.03058256  0.77598309  0.14233377     0.15300
O427        O  0.02261402  0.80607394  0.19360443    -0.27100
C428        C  0.02596347  0.82122657  0.16097680     0.05100
C429        C  0.03104109  0.80347932  0.12811578    -0.31900
O430        O  0.03444562  0.69699421  0.13547370    -0.23800
C431        C  0.03079586  0.68187510  0.16809637    -0.03800
C432        C  0.02603725  0.69968904  0.20096119    -0.18200
H433        H  0.01924063  0.75608543  0.23693078     0.19800
H434        H  0.53821673  0.74709504  0.09210399     0.18200
H435        H  0.53452264  0.80969724  0.09807085     0.18100
H436        H  0.02198920  0.69355622  0.23091757     0.14000
C437        C  0.30824508  0.50132545  0.14647638     0.29400
C438        C  0.28345399  0.50080730  0.12277236    -0.36900
C439        C  0.25656940  0.50094901  0.14252227     0.15400
C440        C  0.25420115  0.00136589  0.18264839     0.21200
C441        C  0.27894808  0.00424035  0.20624513    -0.35000
C442        C  0.30588243  0.00400146  0.18655433     0.15300
O443        O  0.33553450  0.50134894  0.13423765    -0.27100
C444        C  0.35106811  0.00499198  0.16690378     0.05100
C445        C  0.33349505  0.00649566  0.20039460    -0.31900
O446        O  0.22688880  0.00082946  0.19488373    -0.23800
C447        C  0.21146356  0.99763251  0.16222883    -0.03800
C448        C  0.22891416  0.50059064  0.12859352    -0.18200
H449        H  0.28501710  0.50034544  0.09116935     0.19800
H450        H  0.27731913  0.00649667  0.23774141     0.18200
H451        H  0.33979388  0.00936205  0.23061363     0.18100
H452        H  0.22254239  0.50009276  0.09822255     0.14000
C453        C  0.17914250  0.99551282  0.49612021     0.02800
C454        C  0.16409148  0.99491570  0.53213372    -0.13400
C455        C  0.13353882  0.50119954  0.53326510     0.00300
C456        C  0.11777091  0.50100732  0.49843333    -0.11900
C457        C  0.13245934  0.50075337  0.46245945     0.02800
C458        C  0.16299879  0.99443146  0.46125731    -0.11300
H459        H  0.17597962  0.99628450  0.55936413     0.08400
H460        H  0.09414062  0.50105991  0.49932109     0.05900
H461        H  0.17377311  0.99571342  0.43309600     0.05700
C462        C  0.38338227  0.00721860  0.49969801     0.02800
C463        C  0.39843744  0.00787301  0.46369603    -0.13400
C464        C  0.42889622  0.01029313  0.46257437     0.00300
C465        C  0.44457856  0.01203329  0.49748082    -0.11900
C466        C  0.42994862  0.01074618  0.53346534     0.02800
C467        C  0.39951639  0.00833496  0.53456897    -0.12100
H468        H  0.38656077  0.00645134  0.43645984     0.08400
H469        H  0.46817739  0.01330085  0.49662612     0.05900
H470        H  0.38874247  0.00698253  0.56272305     0.05700
C471        C  0.03131788  0.64955713  0.50144655     0.02800
C472        C  0.03202284  0.63399533  0.53659311    -0.13400
C473        C  0.03228472  0.60349812  0.53592528     0.00300
C474        C  0.03186962  0.58826703  0.50016822    -0.11900
C475        C  0.03122957  0.60344018  0.46503943     0.02800
C476        C  0.03104968  0.63395717  0.46568571    -0.11300
H477        H  0.03246630  0.64531279  0.56457179     0.08400
H478        H  0.03198046  0.56465389  0.49968404     0.05900
H479        H  0.03055055  0.64546501  0.43828133     0.05700
C480        C  0.02435642  0.85349130  0.49432021     0.02800
C481        C  0.02304814  0.86904331  0.45922552    -0.13400
C482        C  0.02131616  0.89949352  0.45997050     0.00300
C483        C  0.02089265  0.91467963  0.49577978    -0.11900
C484        C  0.02262651  0.89951882  0.53084720     0.02800
C485        C  0.02426843  0.86905789  0.53009919    -0.11300
H486        H  0.02339281  0.85775591  0.43121538     0.08400
H487        H  0.02011561  0.93827809  0.49631754     0.05900
H488        H  0.02569384  0.85757205  0.55745216     0.05700
N489        N  0.09328378  0.51528609  0.37712179    -0.06500
N490        N  0.10742437  0.52526062  0.40803982    -0.58600
N491        N  0.09263940  0.98127205  0.61920283    -0.06200
N492        N  0.10618032  0.97009171  0.58822181    -0.60700
N493        N  0.09430104  0.51553434  0.62013929    -0.05800
N494        N  0.10902127  0.52562136  0.58988644    -0.58600
N495        N  0.09161164  0.98104626  0.37664055    -0.05400
N496        N  0.10472299  0.96975694  0.40713530    -0.61100
C497        C  0.11596512  0.99327455  0.42600374     0.95700
C498        C  0.11797812  0.50123288  0.57077173     0.95500
N499        N  0.01138649  0.94046536  0.61753692    -0.06700
N500        N  0.00024838  0.92712852  0.58655588    -0.59200
N501        N  0.03906033  0.93743523  0.37461092    -0.04800
N502        N  0.04762716  0.92203825  0.40462265    -0.60400
N503        N  0.01052474  0.94022759  0.37490866    -0.06700
N504        N  0.99905357  0.92687380  0.40536120    -0.59400
N505        N  0.03990719  0.93756391  0.61780743    -0.04400
N506        N  0.04877939  0.92200292  0.58717597    -0.60500
Mn507      Mn  0.06650421  0.95849728  0.66368423     1.18400
C508        C  0.02380190  0.91561974  0.56815088     0.97800
C509        C  0.02249229  0.91555716  0.42334662     0.98400
N510        N  0.04622860  0.56399022  0.62108449    -0.06700
N511        N  0.05651685  0.57845304  0.59085506    -0.63000
N512        N  0.01684810  0.56385422  0.37822715    -0.05500
N513        N  0.00672961  0.57844346  0.40904594    -0.63700
N514        N  0.04552264  0.56373827  0.37819100    -0.06200
N515        N  0.05555241  0.57818796  0.40896472    -0.63300
N516        N  0.01755526  0.56406270  0.62114555    -0.05100
N517        N  0.00768989  0.57855704  0.59100197    -0.64000
Mn518      Mn  0.07061835  0.54039627  0.66579665     1.10700
C519        C  0.03220954  0.58747041  0.57260446     0.99000
C520        C  0.03114044  0.58731789  0.42770613     0.99100
N521        N  0.46680816  0.99297844  0.37554627    -0.06200
N522        N  0.45096927  0.98422697  0.40555154    -0.61600
N523        N  0.46946361  0.51648867  0.61947027    -0.05500
N524        N  0.45552236  0.52678808  0.58905056    -0.58300
N525        N  0.46793487  0.99318042  0.61876126    -0.06900
N526        N  0.45263350  0.98451160  0.58818842    -0.61200
N527        N  0.46849699  0.51625487  0.37649153    -0.05800
N528        N  0.45405301  0.52644417  0.40729639    -0.58400
Mn529      Mn  0.48820309  0.96606397  0.66335591     1.20200
Mn530      Mn  0.49266100  0.54101986  0.66555255     1.10100
Cl531      Cl  0.03122008  0.50121872  0.66458610    -0.86300
C532        C  0.44456726  0.00922952  0.42507420     0.96000
C533        C  0.44649262  0.50252555  0.56979748     0.95800
C534        C  0.02539564  0.77872234  0.51533705     0.29400
C535        C  0.02339054  0.75420743  0.53914360    -0.36900
C536        C  0.02697524  0.72716528  0.52013054     0.15400
C537        C  0.03215027  0.72439465  0.48047857     0.21200
C538        C  0.53429126  0.74896096  0.45663983    -0.35000
C539        C  0.03058746  0.77598115  0.47568363     0.15300
O540        O  0.02260962  0.80607262  0.52695095    -0.27100
C541        C  0.02596519  0.82122475  0.49432352     0.05100
C542        C  0.03104891  0.80347693  0.46146510    -0.31900
O543        O  0.03445055  0.69699300  0.46882189    -0.23800
C544        C  0.03079457  0.68187259  0.50144197    -0.03800
C545        C  0.02603019  0.69968538  0.53430681    -0.18200
H546        H  0.01922735  0.75608268  0.57027673     0.19800
H547        H  0.53823126  0.74709392  0.42545614     0.18200
H548        H  0.53453715  0.80969432  0.43142121     0.18100
H549        H  0.02197659  0.69355091  0.56426133     0.14000
C550        C  0.30824498  0.50134576  0.47980968     0.29400
C551        C  0.28345369  0.50085386  0.45610552    -0.36900
C552        C  0.25656907  0.50097504  0.47585556     0.15400
C553        C  0.25420002  0.00139651  0.51597733     0.21200
C554        C  0.27894457  0.00431483  0.53957008    -0.35000
C555        C  0.30588081  0.00403937  0.51988447     0.15300
O556        O  0.33553449  0.50138118  0.46757109    -0.27100
C557        C  0.35106798  0.00499521  0.50023831     0.05100
C558        C  0.33349202  0.00656025  0.53372209    -0.31900
O559        O  0.22688650  0.00088247  0.52820977    -0.23800
C560        C  0.21146477  0.99762616  0.49556106    -0.03800
C561        C  0.22891368  0.50063159  0.46192689    -0.18200
H562        H  0.28501661  0.50042561  0.42450242     0.19800
H563        H  0.27731253  0.00662972  0.57105968     0.18200
H564        H  0.33978882  0.00948623  0.56393313     0.18100
H565        H  0.22254184  0.50016799  0.43155576     0.14000
C566        C  0.17914129  0.99551743  0.82945457     0.02800
C567        C  0.16409079  0.99491311  0.86546838    -0.13400
C568        C  0.13353918  0.50120244  0.86659935     0.00300
C569        C  0.11777114  0.50100688  0.83176768    -0.11900
C570        C  0.13245943  0.50074890  0.79579372     0.02800
C571        C  0.16299647  0.99444079  0.79459228    -0.11300
H572        H  0.17597919  0.99627858  0.89269880     0.08400
H573        H  0.09414087  0.50106008  0.83265556     0.05900
H574        H  0.17376940  0.99572328  0.76643041     0.05700
C575        C  0.38338351  0.00721385  0.83302948     0.02800
C576        C  0.39843805  0.00787540  0.79702709    -0.13400
C577        C  0.42889683  0.01029685  0.79590476     0.00300
C578        C  0.44457990  0.01203339  0.83081076    -0.11900
C579        C  0.42995081  0.01074133  0.86679535     0.02800
C580        C  0.39951884  0.00832719  0.86789971    -0.12100
H581        H  0.38656118  0.00645589  0.76979098     0.08400
H582        H  0.46817863  0.01330224  0.82995545     0.05900
H583        H  0.38874642  0.00697429  0.89605451     0.05700
C584        C  0.03132040  0.64955886  0.83477040     0.02800
C585        C  0.03202403  0.63399980  0.86991969    -0.13400
C586        C  0.03228390  0.60350250  0.86925689     0.00300
C587        C  0.03186834  0.58826856  0.83350201    -0.11900
C588        C  0.03123000  0.60343879  0.79837075     0.02800
C589        C  0.03105212  0.63395584  0.79901210    -0.11300
H590        H  0.03246795  0.64531936  0.89789682     0.08400
H591        H  0.03197783  0.56465544  0.83302137     0.05900
H592        H  0.03055422  0.64546140  0.77160580     0.05700
C593        C  0.02436053  0.85349375  0.82764262     0.02800
C594        C  0.02305234  0.86904841  0.79255030    -0.13400
C595        C  0.02131782  0.89949854  0.79329971     0.00300
C596        C  0.02089204  0.91468191  0.82911118    -0.11900
C597        C  0.02262663  0.89951851  0.86417658     0.02800
C598        C  0.02427090  0.86905767  0.86342395    -0.11300
H599        H  0.02339897  0.85776303  0.76453871     0.08400
H600        H  0.02011324  0.93828026  0.82965218     0.05900
H601        H  0.02569666  0.85756983  0.89077524     0.05700
N602        N  0.09328320  0.51528038  0.71045666    -0.06500
N603        N  0.10742344  0.52525521  0.74137474    -0.58600
N604        N  0.09263868  0.98126732  0.95253827    -0.06200
N605        N  0.10617976  0.97008748  0.92155690    -0.60700
N606        N  0.09430074  0.51553911  0.95347243    -0.05800
N607        N  0.10902124  0.52562578  0.92321952    -0.58600
N608        N  0.09161306  0.98105393  0.70997294    -0.05400
N609        N  0.10472229  0.96976496  0.74046955    -0.61100
C610        C  0.11596294  0.99328274  0.75933920     0.95700
C611        C  0.11797863  0.50123698  0.90410593     0.95500
N612        N  0.01138505  0.94046098  0.95087024    -0.06700
N613        N  0.00024744  0.92712533  0.91988783    -0.59200
N614        N  0.03906246  0.93744289  0.70794252    -0.04800
N615        N  0.04762917  0.92204596  0.73795430    -0.60400
N616        N  0.01052689  0.94023511  0.70823988    -0.06700
N617        N  0.99905555  0.92688132  0.73869230    -0.59400
N618        N  0.03990574  0.93755926  0.95114150    -0.04400
N619        N  0.04877831  0.92199921  0.92050928    -0.60500
Mn620      Mn  0.06650247  0.95849271  0.99701926     1.18400
C621        C  0.02380115  0.91561676  0.90148284     0.97800
C622        C  0.02249424  0.91556495  0.75667811     0.98400
N623        N  0.04622755  0.56399573  0.95441782    -0.06700
N624        N  0.05651571  0.57845961  0.92418918    -0.63000
N625        N  0.01684810  0.56384832  0.71156214    -0.05500
N626        N  0.00672971  0.57843853  0.74238018    -0.63700
N627        N  0.04552262  0.56373233  0.71152594    -0.06200
N628        N  0.05555254  0.57818297  0.74229878    -0.63300
N629        N  0.01755417  0.56406773  0.95447848    -0.05100
N630        N  0.00768881  0.57856267  0.92433528    -0.64000
Mn631      Mn  0.07061756  0.54040088  0.99912971     1.10700
C632        C  0.03220844  0.58747733  0.90593863     0.99000
C633        C  0.03114064  0.58731338  0.76103987     0.99100
N634        N  0.46681016  0.99298524  0.70887709    -0.06200
N635        N  0.45097047  0.98423303  0.73888110    -0.61600
N636        N  0.46946310  0.51649232  0.95280296    -0.05500
N637        N  0.45552081  0.52679175  0.92238416    -0.58300
N638        N  0.46793470  0.99317618  0.95209336    -0.06900
N639        N  0.45263480  0.98450704  0.92151939    -0.61200
N640        N  0.46849691  0.51624955  0.70982578    -0.05800
N641        N  0.45405247  0.52643972  0.74062959    -0.58400
Mn642      Mn  0.48820139  0.96606012  0.99668899     1.20200
Mn643      Mn  0.49266012  0.54102351  0.99888511     1.10100
Cl644      Cl  0.03121990  0.50122273  0.99791885    -0.86300
C645        C  0.44456758  0.00923506  0.75840429     0.96000
C646        C  0.44649165  0.50252918  0.90313074     0.95800
C647        C  0.02540081  0.77872426  0.84865334     0.29400
C648        C  0.02339610  0.75420968  0.87245978    -0.36900
C649        C  0.02697970  0.72716766  0.85344698     0.15400
C650        C  0.03215342  0.72439621  0.81379489     0.21200
C651        C  0.53429529  0.74896285  0.78995587    -0.35000
C652        C  0.03059126  0.77598339  0.80899954     0.15300
O653        O  0.02261542  0.80607409  0.86026852    -0.27100
C654        C  0.02597002  0.82122711  0.82764203     0.05100
C655        C  0.03105237  0.80347995  0.79478213    -0.31900
O656        O  0.03445289  0.69699383  0.80213966    -0.23800
C657        C  0.03079772  0.68187453  0.83476131    -0.03800
C658        C  0.02603450  0.69968859  0.86762486    -0.18200
H659        H  0.01923392  0.75608511  0.90359316     0.19800
H660        H  0.53823522  0.74709568  0.75877206     0.18200
H661        H  0.53454107  0.80969865  0.76473887     0.18100
H662        H  0.02198153  0.69355561  0.89758010     0.14000
C663        C  0.30824451  0.50132303  0.81314337     0.29400
C664        C  0.28345334  0.50079822  0.78943944    -0.36900
C665        C  0.25656873  0.50094552  0.80918941     0.15400
C666        C  0.25420188  0.00136011  0.84931520     0.21200
C667        C  0.27894894  0.00423278  0.87291204    -0.35000
C668        C  0.30588320  0.00399544  0.85322103     0.15300
O669        O  0.33553401  0.50134249  0.80090471    -0.27100
C670        C  0.35106872  0.00498957  0.83356998     0.05100
C671        C  0.33349584  0.00648986  0.86706120    -0.31900
O672        O  0.22688951  0.00082406  0.86155049    -0.23800
C673        C  0.21146412  0.99763006  0.82889525    -0.03800
C674        C  0.22891341  0.50058248  0.79526090    -0.18200
H675        H  0.28501640  0.50032713  0.75783649     0.19800
H676        H  0.27732010  0.00648732  0.90440861     0.18200
H677        H  0.33979470  0.00935457  0.89728051     0.18100
H678        H  0.22254150  0.50007495  0.76489002     0.14000
C679        C  0.67908366  0.50000081  0.16271745     0.02800
C680        C  0.66404830  0.50018330  0.19875102    -0.13400
C681        C  0.63358016  0.99218979  0.19992979     0.00300
C682        C  0.61788868  0.99051273  0.16502664    -0.11900
C683        C  0.63251859  0.99174196  0.12903661     0.02800
C684        C  0.66293420  0.49976435  0.12787713    -0.11300
H685        H  0.67598473  0.50037280  0.22597582     0.08400
H686        H  0.59428660  0.98931386  0.16588757     0.05900
H687        H  0.67373659  0.49973398  0.09966173     0.05700
C688        C  0.88334680  0.50131941  0.16643648     0.02800
C689        C  0.89837503  0.50116946  0.13039777    -0.13400
C690        C  0.92889773  0.50122746  0.12923302     0.00300
C691        C  0.94467248  0.50148102  0.16405980    -0.11900
C692        C  0.92999038  0.50165239  0.20003740     0.02800
C693        C  0.89950251  0.50156485  0.20127079    -0.12100
H694        H  0.88643345  0.50101281  0.10317753     0.08400
H695        H  0.96830281  0.50151459  0.16316497     0.05900
H696        H  0.88870509  0.50161273  0.22949000     0.05700
C697        C  0.53767726  0.14895885  0.16817038     0.02800
C698        C  0.53919103  0.13344207  0.20327993    -0.13400
C699        C  0.54143711  0.10302228  0.20256522     0.00300
C700        C  0.54216351  0.08783139  0.16676121    -0.11900
C701        C  0.54015329  0.10294273  0.13168039     0.02800
C702        C  0.53800323  0.13337161  0.13240891    -0.11300
H703        H  0.53858871  0.14472814  0.23128378     0.08400
H704        H  0.54326777  0.06424696  0.16624201     0.05900
H705        H  0.53635544  0.14481333  0.10504695     0.05700
C706        C  0.52964697  0.35286278  0.16103867     0.02800
C707        C  0.52904203  0.36845655  0.12591147    -0.13400
C708        C  0.52901648  0.39895534  0.12660821     0.00300
C709        C  0.52955012  0.41416165  0.16237998    -0.11900
C710        C  0.53008949  0.39896402  0.19749519     0.02800
C711        C  0.53004821  0.36844232  0.19681731    -0.11300
H712        H  0.52852509  0.35716548  0.09791826     0.08400
H713        H  0.52963199  0.43777538  0.16288547     0.05900
H714        H  0.53048955  0.35691504  0.22420883     0.05700
N715        N  0.59453223  0.00930771  0.04374023    -0.06500
N716        N  0.60983244  0.01797878  0.07431360    -0.58600
N717        N  0.59393902  0.48619622  0.28600887    -0.06200
N718        N  0.60838567  0.47600469  0.25520851    -0.60700
N719        N  0.59564682  0.00950115  0.28695304    -0.05800
N720        N  0.61149198  0.01825476  0.25695325    -0.58600
N721        N  0.59298465  0.48594730  0.04302228    -0.05400
N722        N  0.60693329  0.47563848  0.07342907    -0.61100
C723        C  0.61596404  0.49989462  0.09269357     0.95700
C724        C  0.61791208  0.99325259  0.23743920     0.95500
N725        N  0.51622711  0.43885571  0.28432493    -0.06700
N726        N  0.50604096  0.42449877  0.25356714    -0.59200
N727        N  0.54418413  0.43822766  0.04137344    -0.04800
N728        N  0.55388589  0.42362761  0.07152095    -0.60400
N729        N  0.51551417  0.43862487  0.04144648    -0.06700
N730        N  0.50506491  0.42428797  0.07169018    -0.59400
N731        N  0.54489721  0.43841869  0.28428778    -0.04400
N732        N  0.55485518  0.42369317  0.25348976    -0.60500
Mn733      Mn  0.56977678  0.46142656  0.33028678     1.18400
C734        C  0.53035032  0.41507617  0.23484033     0.97800
C735        C  0.52926863  0.41500039  0.08993806     0.98400
N736        N  0.55216528  0.06217828  0.28757808    -0.06700
N737        N  0.56366605  0.07549492  0.25710890    -0.63000
N738        N  0.52280932  0.06496077  0.04469842    -0.05500
N739        N  0.51398467  0.08055794  0.07531756    -0.63700
N740        N  0.55131497  0.06192514  0.04500419    -0.06200
N741        N  0.56248686  0.07518770  0.07602514    -0.63300
N742        N  0.52364427  0.06510687  0.28792887    -0.05100
N743        N  0.51511999  0.08057896  0.25796861    -0.64000
Mn744      Mn  0.57425242  0.03641888  0.33248524     1.10700
C745        C  0.54026078  0.08695145  0.23919411     0.99000
C746        C  0.53896874  0.08680497  0.09439905     0.99100
N747        N  0.96813013  0.48690594  0.04235456    -0.06200
N748        N  0.95340301  0.47681757  0.07259971    -0.61600
N749        N  0.97085607  0.02143365  0.28586314    -0.05500
N750        N  0.95775089  0.03272379  0.25536370    -0.58300
N751        N  0.96916463  0.48715317  0.28538081    -0.06900
N752        N  0.95502652  0.47716902  0.25446747    -0.61200
N753        N  0.96982652  0.02121839  0.04329839    -0.05800
N754        N  0.95630091  0.03240011  0.07428932    -0.58400
Mn755      Mn  0.99182084  0.46204435  0.33004490     1.20200
Mn756      Mn  0.99595528  0.04398858  0.33216510     1.10100
Cl757      Cl  0.53122864  0.00123730  0.33125498    -0.86300
C758        C  0.94445106  0.50120432  0.09172148     0.96000
C759        C  0.94650768  0.00920684  0.23649424     0.95800
C760        C  0.52875826  0.27800199  0.18193989     0.29400
C761        C  0.52696031  0.25346567  0.20577897    -0.36900
C762        C  0.53061155  0.22642074  0.18673841     0.15400
C763        C  0.53557941  0.22369291  0.14703543     0.21200
C764        C  0.03750697  0.24820993  0.12319789    -0.35000
C765        C  0.53369445  0.27524219  0.14223530     0.15300
O766        O  0.52654006  0.30540365  0.19363877    -0.27100
C767        C  0.53001278  0.32053715  0.16099429     0.05100
C768        C  0.53455741  0.30272735  0.12806804    -0.31900
O769        O  0.53858417  0.19636133  0.13543566    -0.23800
C770        C  0.53559509  0.18120420  0.16812035    -0.03800
C771        C  0.53052219  0.19893439  0.20100192    -0.18200
H772        H  0.52321361  0.25534086  0.23700291     0.19800
H773        H  0.04160297  0.24633338  0.09204933     0.18200
H774        H  0.03908128  0.30885800  0.09811056     0.18100
H775        H  0.52712423  0.19275397  0.23107635     0.14000
C776        C  0.80829859  0.00076849  0.14647418     0.29400
C777        C  0.78355043  0.99788666  0.12287535    -0.36900
C778        C  0.75661361  0.99812997  0.14256766     0.15400
C779        C  0.75419959  0.50077119  0.18271668     0.21200
C780        C  0.77899129  0.50128793  0.20642148    -0.35000
C781        C  0.80587653  0.50114589  0.18667109     0.15300
O782        O  0.83561202  0.00136066  0.13424289    -0.27100
C783        C  0.85101578  0.50113515  0.16699465     0.05100
C784        C  0.83353325  0.50153626  0.20059685    -0.31900
O785        O  0.72690864  0.50078179  0.19495235    -0.23800
C786        C  0.71141532  0.50017825  0.16216880    -0.03800
C787        C  0.72899280  0.99568991  0.12873172    -0.18200
H788        H  0.78517875  0.99565002  0.09137680     0.19800
H789        H  0.77742823  0.50176418  0.23802443     0.18200
H790        H  0.83990774  0.50206145  0.23096665     0.18100
H791        H  0.72268411  0.99285715  0.09851143     0.14000
C792        C  0.67908300  0.50000405  0.49605112     0.02800
C793        C  0.66404749  0.50018228  0.53208463    -0.13400
C794        C  0.63358116  0.99219358  0.53326044     0.00300
C795        C  0.61789040  0.99051363  0.49835681    -0.11900
C796        C  0.63252118  0.99173809  0.46236690     0.02800
C797        C  0.66293348  0.49976825  0.46121081    -0.11300
H798        H  0.67598389  0.50037124  0.55930946     0.08400
H799        H  0.59428818  0.98931642  0.49921709     0.05900
H800        H  0.67373583  0.49973786  0.43299539     0.05700
C801        C  0.88334712  0.50131651  0.49977032     0.02800
C802        C  0.89837561  0.50117063  0.46373174    -0.13400
C803        C  0.92889839  0.50122908  0.46256711     0.00300
C804        C  0.94467294  0.50147971  0.49739409    -0.11900
C805        C  0.92999072  0.50164785  0.53337165     0.02800
C806        C  0.89950280  0.50155968  0.53460473    -0.12100
H807        H  0.88643415  0.50101553  0.43651143     0.08400
H808        H  0.96830333  0.50151361  0.49649947     0.05900
H809        H  0.88870533  0.50160763  0.56282389     0.05700
C810        C  0.53768218  0.14896136  0.50149415     0.02800
C811        C  0.53919569  0.13344680  0.53660568    -0.13400
C812        C  0.54143869  0.10302687  0.53589469     0.00300
C813        C  0.54216254  0.08783354  0.50009262    -0.11900
C814        C  0.54015354  0.10294282  0.46501012     0.02800
C815        C  0.53800638  0.13337185  0.46573466    -0.11300
H816        H  0.53859548  0.14473464  0.56460829     0.08400
H817        H  0.54326461  0.06424903  0.49957623     0.05900
H818        H  0.53635923  0.14481192  0.43837133     0.05700
C819        C  0.52964974  0.35286420  0.49436396     0.02800
C820        C  0.52904359  0.36846022  0.45923911    -0.13400
C821        C  0.52901594  0.39895889  0.45994029     0.00300
C822        C  0.52954885  0.41416281  0.49571385    -0.11900
C823        C  0.53008976  0.39896267  0.53082691     0.02800
C824        C  0.53005059  0.36844107  0.53014474    -0.11300
H825        H  0.52852730  0.35717098  0.43124461     0.08400
H826        H  0.52962939  0.43777656  0.49622233     0.05900
H827        H  0.53049312  0.35691182  0.55753468     0.05700
N828        N  0.59453258  0.00930476  0.37707253    -0.06500
N829        N  0.60983425  0.01797544  0.40764482    -0.58600
N830        N  0.59393887  0.48619086  0.61934296    -0.06200
N831        N  0.60838508  0.47600000  0.58854175    -0.60700
N832        N  0.59564887  0.00950795  0.62028388    -0.05800
N833        N  0.61149350  0.01826082  0.59028306    -0.58600
N834        N  0.59298465  0.48594862  0.37635480    -0.05400
N835        N  0.60693232  0.47563982  0.40676248    -0.61100
C836        C  0.61596347  0.49989595  0.42602676     0.95700
C837        C  0.61791275  0.99325813  0.57076950     0.95500
N838        N  0.51622700  0.43884981  0.61766018    -0.06700
N839        N  0.50604094  0.42449375  0.58690162    -0.59200
N840        N  0.54418340  0.43823068  0.37470611    -0.04800
N841        N  0.55388518  0.42363166  0.40485436    -0.60400
N842        N  0.51551349  0.43862839  0.37477953    -0.06700
N843        N  0.50506414  0.42429293  0.40502433    -0.59400
N844        N  0.54489714  0.43841306  0.61762278    -0.04400
N845        N  0.55485517  0.42368865  0.58682391    -0.60500
Mn846      Mn  0.56977700  0.46142075  0.66362133     1.18400
C847        C  0.53035037  0.41507197  0.56817418     0.97800
C848        C  0.52926790  0.41500595  0.42327242     0.98400
N849        N  0.55216748  0.06218566  0.62090951    -0.06700
N850        N  0.56366805  0.07550202  0.59044000    -0.63000
N851        N  0.52280830  0.06495727  0.37803219    -0.05500
N852        N  0.51398391  0.08055518  0.40865069    -0.63700
N853        N  0.55131399  0.06192191  0.37833733    -0.06200
N854        N  0.56248626  0.07518551  0.40935710    -0.63300
N855        N  0.52364647  0.06511435  0.62126074    -0.05100
N856        N  0.51512199  0.08058610  0.59130027    -0.64000
Mn857      Mn  0.57425474  0.03642624  0.66581636     1.10700
C858        C  0.54026268  0.08695853  0.57252548     0.99000
C859        C  0.53896826  0.08680287  0.42773102     0.99100
N860        N  0.96813018  0.48690883  0.37568753    -0.06200
N861        N  0.95340329  0.47682028  0.40593276    -0.61600
N862        N  0.97085768  0.02144139  0.61919553    -0.05500
N863        N  0.95775068  0.03273188  0.58869769    -0.58300
N864        N  0.96916401  0.48714733  0.61871604    -0.06900
N865        N  0.95502572  0.47716351  0.58780256    -0.61200
N866        N  0.96982614  0.02121471  0.37663361    -0.05800
N867        N  0.95630053  0.03239685  0.40762412    -0.58400
Mn868      Mn  0.99182065  0.46203832  0.66338035     1.20200
Mn869      Mn  0.99595752  0.04399601  0.66549729     1.10100
Cl870      Cl  0.53123081  0.00124472  0.66458632    -0.86300
C871        C  0.94445191  0.50120683  0.42505542     0.96000
C872        C  0.94650613  0.00921510  0.56982931     0.95800
C873        C  0.52876252  0.27800345  0.51525853     0.29400
C874        C  0.52696414  0.25346733  0.53909701    -0.36900
C875        C  0.53061672  0.22642294  0.52005670     0.15400
C876        C  0.53558619  0.22369490  0.48035412     0.21200
C877        C  0.03751377  0.24821213  0.45651631    -0.35000
C878        C  0.53370024  0.27524445  0.47555412     0.15300
O879        O  0.52654319  0.30540440  0.52695871    -0.27100
C880        C  0.53001665  0.32053886  0.49431563     0.05100
C881        C  0.53456292  0.30273028  0.46138833    -0.31900
O882        O  0.53859153  0.19636298  0.46875546    -0.23800
C883        C  0.53560123  0.18120662  0.50144088    -0.03800
C884        C  0.53052689  0.19893729  0.53432120    -0.18200
H885        H  0.52321611  0.25534233  0.57032067     0.19800
H886        H  0.04161050  0.24633575  0.42536785     0.18200
H887        H  0.03908682  0.30886222  0.43143109     0.18100
H888        H  0.52712719  0.19275770  0.56439552     0.14000
C889        C  0.80830090  0.00073217  0.47981276     0.29400
C890        C  0.78355517  0.99780613  0.45621800    -0.36900
C891        C  0.75661643  0.99808631  0.47590499     0.15400
C892        C  0.75419936  0.50075457  0.51605034     0.21200
C893        C  0.77899124  0.50124556  0.53975520    -0.35000
C894        C  0.80587649  0.50112372  0.52000475     0.15300
O895        O  0.83561544  0.00130320  0.46758398    -0.27100
C896        C  0.85101589  0.50113238  0.50032834     0.05100
C897        C  0.83353331  0.50149826  0.53393061    -0.31900
O898        O  0.72690840  0.50075242  0.52828610    -0.23800
C899        C  0.71141485  0.50018290  0.49550243    -0.03800
C900        C  0.72899698  0.99562088  0.46207141    -0.18200
H901        H  0.78518662  0.99551114  0.42472595     0.19800
H902        H  0.77742827  0.50168821  0.57135836     0.18200
H903        H  0.83990778  0.50198908  0.56430066     0.18100
H904        H  0.72269020  0.99272894  0.43185889     0.14000
C905        C  0.67908302  0.50000080  0.82938520     0.02800
C906        C  0.66404776  0.50018431  0.86541888    -0.13400
C907        C  0.63358033  0.99219121  0.86659569     0.00300
C908        C  0.61788892  0.99051615  0.83169226    -0.11900
C909        C  0.63251904  0.99174592  0.79570234     0.02800
C910        C  0.66293354  0.49976260  0.79454493    -0.11300
H911        H  0.67598422  0.50037499  0.89264358     0.08400
H912        H  0.59428673  0.98931836  0.83255295     0.05900
H913        H  0.67373590  0.49973236  0.76632954     0.05700
C914        C  0.88334620  0.50132067  0.83310370     0.02800
C915        C  0.89837466  0.50116977  0.79706514    -0.13400
C916        C  0.92889738  0.50122669  0.79590078     0.00300
C917        C  0.94467187  0.50147971  0.83072774    -0.11900
C918        C  0.92998961  0.50165134  0.86670521     0.02800
C919        C  0.89950172  0.50156515  0.86793821    -0.12100
H920        H  0.88643326  0.50101354  0.76984482     0.08400
H921        H  0.96830226  0.50151255  0.82983316     0.05900
H922        H  0.88870411  0.50161272  0.89615735     0.05700
C923        C  0.53768277  0.14895987  0.83483801     0.02800
C924        C  0.53919630  0.13344243  0.86994678    -0.13400
C925        C  0.54144118  0.10302271  0.86923075     0.00300
C926        C  0.54216681  0.08783245  0.83342637    -0.11900
C927        C  0.54015700  0.10294471  0.79834633     0.02800
C928        C  0.53800811  0.13337354  0.79907593    -0.11300
H929        H  0.53859443  0.14472790  0.89795111     0.08400
H930        H  0.54327010  0.06424798  0.83290631     0.05900
H931        H  0.53636055  0.14481586  0.77171444     0.05700
C932        C  0.52964898  0.35286212  0.82770761     0.02800
C933        C  0.52904295  0.36845537  0.79258016    -0.13400
C934        C  0.52901737  0.39895402  0.79327653     0.00300
C935        C  0.52955172  0.41416073  0.82904777    -0.11900
C936        C  0.53009188  0.39896343  0.86416301     0.02800
C937        C  0.53005105  0.36844185  0.86348588    -0.11300
H938        H  0.52852532  0.35716416  0.76458718     0.08400
H939        H  0.52963336  0.43777447  0.82955286     0.05900
H940        H  0.53049308  0.35691492  0.89087760     0.05700
N941        N  0.59453411  0.00931243  0.71040461    -0.06500
N942        N  0.60983359  0.01798344  0.74097879    -0.58600
N943        N  0.59393896  0.48619568  0.95267691    -0.06200
N944        N  0.60838571  0.47600446  0.92187651    -0.60700
N945        N  0.59564829  0.00950319  0.95362018    -0.05800
N946        N  0.61149305  0.01825652  0.92361981    -0.58600
N947        N  0.59298506  0.48594291  0.70968930    -0.05400
N948        N  0.60693318  0.47563438  0.74009681    -0.61100
C949        C  0.61596352  0.49989075  0.75936130     0.95700
C950        C  0.61791235  0.99325427  0.90410535     0.95500
N951        N  0.51622816  0.43885422  0.95099221    -0.06700
N952        N  0.50604248  0.42449755  0.92023403    -0.59200
N953        N  0.54418385  0.43822437  0.70804069    -0.04800
N954        N  0.55388598  0.42362494  0.73818840    -0.60400
N955        N  0.51551388  0.43862194  0.70811456    -0.06700
N956        N  0.50506495  0.42428586  0.73835910    -0.59400
N957        N  0.54489827  0.43841765  0.95095543    -0.04400
N958        N  0.55485678  0.42369275  0.92015734    -0.60500
Mn959      Mn  0.56977721  0.46142520  0.99695451     1.18400
C960        C  0.53035220  0.41507572  0.90150751     0.97800
C961        C  0.52926893  0.41499848  0.75660641     0.98400
N962        N  0.55216752  0.06218033  0.95424456    -0.06700
N963        N  0.56366891  0.07549565  0.92377485    -0.63000
N964        N  0.52281109  0.06496447  0.71136442    -0.05500
N965        N  0.51398703  0.08056101  0.74198436    -0.63700
N966        N  0.55131681  0.06192933  0.71166870    -0.06200
N967        N  0.56248939  0.07519154  0.74268933    -0.63300
N968        N  0.52364658  0.06510930  0.95459461    -0.05100
N969        N  0.51512285  0.08058032  0.92463316    -0.64000
Mn970      Mn  0.57425361  0.03642149  0.99915224     1.10700
C971        C  0.54026398  0.08695164  0.90585887     0.99000
C972        C  0.53897159  0.08680806  0.76106463     0.99100
N973        N  0.96813020  0.48690341  0.70902302    -0.06200
N974        N  0.95340272  0.47681570  0.73926831    -0.61600
N975        N  0.97085781  0.02143717  0.95252725    -0.05500
N976        N  0.95775247  0.03272731  0.92202785    -0.58300
N977        N  0.96916463  0.48715095  0.95204790    -0.06900
N978        N  0.95502614  0.47716714  0.92113464    -0.61200
N979        N  0.96982813  0.02122156  0.70996562    -0.05800
N980        N  0.95630128  0.03240296  0.74095576    -0.58400
Mn981      Mn  0.99182118  0.46204175  0.99671203     1.20200
Mn982      Mn  0.99595663  0.04399197  0.99883025     1.10100
Cl983      Cl  0.53122950  0.00124041  0.99792058    -0.86300
C984        C  0.94445104  0.50120285  0.75838943     0.96000
C985        C  0.94650877  0.00921032  0.90315893     0.95800
C986        C  0.52876331  0.27800201  0.84861005     0.29400
C987        C  0.52696731  0.25346577  0.87244939    -0.36900
C988        C  0.53061815  0.22642104  0.85340838     0.15400
C989        C  0.53558381  0.22369343  0.81370487     0.21200
C990        C  0.03750870  0.24821025  0.78986717    -0.35000
C991        C  0.53369735  0.27524224  0.80890499     0.15300
O992        O  0.52654490  0.30540358  0.86030887    -0.27100
C993        C  0.53001533  0.32053681  0.82766379     0.05100
C994        C  0.53455871  0.30272709  0.79473737    -0.31900
O995        O  0.53858817  0.19636213  0.80210450    -0.23800
C996        C  0.53560102  0.18120492  0.83478922    -0.03800
C997        C  0.53052986  0.19893470  0.86767166    -0.18200
H998        H  0.52322218  0.25534087  0.90367367     0.19800
H999        H  0.04160210  0.24633372  0.75871802     0.18200
H1000       H  0.03907923  0.30885746  0.76477898     0.18100
H1001       H  0.52713349  0.19275409  0.89774624     0.14000
C1002       C  0.80829915  0.00076537  0.81314069     0.29400
C1003       C  0.78355090  0.99788475  0.78954181    -0.36900
C1004       C  0.75661417  0.99812677  0.80923432     0.15400
C1005       C  0.75419892  0.50077908  0.84938377     0.21200
C1006       C  0.77899065  0.50130263  0.87308839    -0.35000
C1007       C  0.80587587  0.50115497  0.85333797     0.15300
O1008       O  0.83561246  0.00135963  0.80090906    -0.27100
C1009       C  0.85101515  0.50113761  0.83366162     0.05100
C1010       C  0.83353255  0.50154874  0.86726368    -0.31900
O1011       O  0.72690803  0.50079244  0.86161963    -0.23800
C1012       C  0.71141464  0.50017925  0.82883628    -0.03800
C1013       C  0.72899329  0.99568868  0.79539815    -0.18200
H1014       H  0.78517905  0.99565054  0.75804299     0.19800
H1015       H  0.77742762  0.50178757  0.90469129     0.18200
H1016       H  0.83990704  0.50208284  0.89763350     0.18100
H1017       H  0.72268449  0.99285848  0.76517756     0.14000
C1018       C  0.67910105  0.99511445  0.16278342     0.02800
C1019       C  0.66404839  0.99450749  0.19879454    -0.13400
C1020       C  0.63352515  0.50012961  0.19990482     0.00300
C1021       C  0.61775721  0.49985457  0.16507189    -0.11900
C1022       C  0.63244598  0.49968962  0.12909904     0.02800
C1023       C  0.66295792  0.99404779  0.12791980    -0.11300
H1024       H  0.67593466  0.99588112  0.22602620     0.08400
H1025       H  0.59412678  0.49986635  0.16595906     0.05900
H1026       H  0.67373196  0.99534791  0.09976042     0.05700
C1027       C  0.88334324  0.00681236  0.16635939     0.02800
C1028       C  0.89839584  0.00747073  0.13035445    -0.13400
C1029       C  0.92885483  0.00988807  0.12922906     0.00300
C1030       C  0.94453976  0.01162222  0.16413302    -0.11900
C1031       C  0.92991208  0.01034574  0.20011937     0.02800
C1032       C  0.89947998  0.00793644  0.20122853    -0.12100
H1033       H  0.88651696  0.00605863  0.10311944     0.08400
H1034       H  0.96813790  0.01290232  0.16327541     0.05900
H1035       H  0.88870839  0.00660100  0.22938569     0.05700
C1036       C  0.53205398  0.64958110  0.16810662     0.02800
C1037       C  0.53284608  0.63402477  0.20325620    -0.13400
C1038       C  0.53334423  0.60352906  0.20259220     0.00300
C1039       C  0.53307900  0.58829462  0.16683231    -0.11900
C1040       C  0.53228376  0.60345860  0.13170220     0.02800
C1041       C  0.53186611  0.63397372  0.13234804    -0.11300
H1042       H  0.53315465  0.64534421  0.23123714     0.08400
H1043       H  0.53331033  0.56468276  0.16635097     0.05900
H1044       H  0.53123190  0.64547356  0.10494417     0.05700
C1045       C  0.52408588  0.85349891  0.16097818     0.02800
C1046       C  0.52274016  0.86905647  0.12588927    -0.13400
C1047       C  0.52091767  0.89950295  0.12664196     0.00300
C1048       C  0.52043484  0.91467995  0.16245956    -0.11900
C1049       C  0.52222604  0.89951863  0.19752342     0.02800
C1050       C  0.52396130  0.86906149  0.19676197    -0.11300
H1051       H  0.52314182  0.85777759  0.09787434     0.08400
H1052       H  0.51961136  0.93827660  0.16300492     0.05900
H1053       H  0.52544121  0.85757637  0.22410959     0.05700
N1054       N  0.59343600  0.51460050  0.04375927    -0.06500
N1055       N  0.60769841  0.52442804  0.07465367    -0.58600
N1056       N  0.59254520  0.98101002  0.28586062    -0.06200
N1057       N  0.60603612  0.96977737  0.25487268    -0.60700
N1058       N  0.59445631  0.51484748  0.28679940    -0.05800
N1059       N  0.60929864  0.52478004  0.25655952    -0.58600
N1060       N  0.59152199  0.98080316  0.04330652    -0.05400
N1061       N  0.60458337  0.96946556  0.07380787    -0.61100
C1062       C  0.61592637  0.99294006  0.09266391     0.95700
C1063       C  0.61796457  0.50030083  0.23741393     0.95500
N1064       N  0.51113332  0.94052983  0.28420692    -0.06700
N1065       N  0.49994462  0.92723870  0.25322221    -0.59200
N1066       N  0.53879753  0.93739536  0.04128391    -0.04800
N1067       N  0.54730290  0.92195189  0.07128389    -0.60400
N1068       N  0.51027470  0.94031141  0.04159485    -0.06700
N1069       N  0.49875256  0.92700367  0.07205326    -0.59400
N1070       N  0.53964066  0.93750492  0.28448547    -0.04400
N1071       N  0.54845078  0.92189753  0.25386422    -0.60500
Mn1072     Mn  0.56632219  0.95833898  0.33035371     1.18400
C1073       C  0.52345175  0.91562083  0.23482901     0.97800
C1074       C  0.52214572  0.91557811  0.09002318     0.98400
N1075       N  0.54691706  0.56383399  0.28772475    -0.06700
N1076       N  0.55735175  0.57818027  0.25747654    -0.63000
N1077       N  0.51753607  0.56402500  0.04488397    -0.05500
N1078       N  0.50756725  0.57874329  0.07567849    -0.63700
N1079       N  0.54620614  0.56357375  0.04487493    -0.06200
N1080       N  0.55638091  0.57790082  0.07566706    -0.63300
N1081       N  0.51824725  0.56424185  0.28782641    -0.05100
N1082       N  0.50853152  0.57887158  0.25771637    -0.64000
Mn1083     Mn  0.57104727  0.53996807  0.33244997     1.10700
C1084       C  0.53313716  0.58749933  0.23927670     0.99000
C1085       C  0.53206246  0.58732620  0.09437328     0.99100
N1086       N  0.96683667  0.99271698  0.04220399    -0.06200
N1087       N  0.95103439  0.98390185  0.07220975    -0.61600
N1088       N  0.96928691  0.51580885  0.28613348    -0.05500
N1089       N  0.95522185  0.52596295  0.25572919    -0.58300
N1090       N  0.96796525  0.99291698  0.28541639    -0.06900
N1091       N  0.95270491  0.98418921  0.25483428    -0.61200
N1092       N  0.96832073  0.51555954  0.04312987    -0.05800
N1093       N  0.95375066  0.52559851  0.07391207    -0.58400
Mn1094     Mn  0.98834403  0.96588426  0.33001459     1.20200
Mn1095     Mn  0.99221894  0.54058790  0.33220991     1.10100
Cl1096     Cl  0.53121946  0.50122630  0.33125125    -0.86300
C1097       C  0.94452345  0.00887995  0.09172526     0.96000
C1098       C  0.94647950  0.50161088  0.23644070     0.95800
C1099       C  0.52545718  0.77872682  0.18198569     0.29400
C1100       C  0.52362026  0.75420433  0.20580269    -0.36900
C1101       C  0.52729396  0.72717547  0.18678163     0.15400
C1102       C  0.53239730  0.72442399  0.14711234     0.21200
C1103       C  0.03419881  0.74892717  0.12331583    -0.35000
C1104       C  0.53057557  0.77600456  0.14231447     0.15300
O1105       O  0.52258271  0.80606723  0.19360911    -0.27100
C1106       C  0.52580746  0.82123373  0.16097057     0.05100
C1107       C  0.53089181  0.80350255  0.12809418    -0.31900
O1108       O  0.53482393  0.69703190  0.13545611    -0.23800
C1109       C  0.53132104  0.68189651  0.16809307    -0.03800
C1110       C  0.52653023  0.69969265  0.20096931    -0.18200
H1111       H  0.51952284  0.75606434  0.23695215     0.19800
H1112       H  0.03817821  0.74704430  0.09214200     0.18200
H1113       H  0.03475138  0.80966300  0.09810433     0.18100
H1114       H  0.52258951  0.69354612  0.23094445     0.14000
C1115       C  0.80823095  0.50054229  0.14645248     0.29400
C1116       C  0.78343989  0.50002655  0.12274847    -0.36900
C1117       C  0.75655533  0.50016773  0.14249833     0.15400
C1118       C  0.75416070  0.00096604  0.18264956     0.21200
C1119       C  0.77890781  0.00384063  0.20624663    -0.35000
C1120       C  0.80584247  0.00360208  0.18655569     0.15300
O1121       O  0.83552046  0.50053119  0.13421382    -0.27100
C1122       C  0.85102820  0.00459181  0.16690309     0.05100
C1123       C  0.83345579  0.00609537  0.20039496    -0.31900
O1124       O  0.72684786  0.00042844  0.19488372    -0.23800
C1125       C  0.71142361  0.99723130  0.16222765    -0.03800
C1126       C  0.72890030  0.49977620  0.12856955    -0.18200
H1127       H  0.78500305  0.49955071  0.09114554     0.19800
H1128       H  0.77727882  0.00609639  0.23774307     0.18200
H1129       H  0.83975542  0.00896014  0.23061394     0.18100
H1130       H  0.72252881  0.49925126  0.09819865     0.14000
C1131       C  0.67910272  0.99510967  0.49611531     0.02800
C1132       C  0.66404940  0.99450947  0.53212596    -0.13400
C1133       C  0.63352425  0.50012663  0.53323839     0.00300
C1134       C  0.61775638  0.49985300  0.49840534    -0.11900
C1135       C  0.63244524  0.49969105  0.46243253     0.02800
C1136       C  0.66296079  0.99404064  0.46125091    -0.11300
H1137       H  0.67593543  0.99588473  0.55935779     0.08400
H1138       H  0.59412595  0.49986346  0.49929239     0.05900
H1139       H  0.67373637  0.99534036  0.43309230     0.05700
C1140       C  0.88334258  0.00681672  0.49969373     0.02800
C1141       C  0.89839562  0.00746853  0.46368903    -0.13400
C1142       C  0.92885448  0.00988642  0.46256414     0.00300
C1143       C  0.94453881  0.01162553  0.49746826    -0.11900
C1144       C  0.92991055  0.01035379  0.53345457     0.02800
C1145       C  0.89947833  0.00794552  0.53456336    -0.12100
H1146       H  0.88651694  0.00605314  0.43645405     0.08400
H1147       H  0.96813694  0.01290541  0.49661107     0.05900
H1148       H  0.88870554  0.00661028  0.56271995     0.05700
C1149       C  0.53205285  0.64957856  0.50144837     0.02800
C1150       C  0.53284470  0.63401991  0.53659585    -0.13400
C1151       C  0.53334474  0.60352418  0.53592785     0.00300
C1152       C  0.53308123  0.58829210  0.50016599    -0.11900
C1153       C  0.53228572  0.60345839  0.46503762     0.02800
C1154       C  0.53186641  0.63397356  0.46568767    -0.11300
H1155       H  0.53315205  0.64533774  0.56457799     0.08400
H1156       H  0.53331372  0.56468024  0.49968179     0.05900
H1157       H  0.53123198  0.64547537  0.43828533     0.05700
C1158       C  0.52408817  0.85349729  0.49432088     0.02800
C1159       C  0.52274242  0.86905219  0.45922940    -0.13400
C1160       C  0.52092063  0.89949881  0.45997744     0.00300
C1161       C  0.52043839  0.91467848  0.49579301    -0.11900
C1162       C  0.52222928  0.89952003  0.53085919     0.02800
C1163       C  0.52396389  0.86906272  0.53010237    -0.11300
H1164       H  0.52314302  0.85777111  0.43121606     0.08400
H1165       H  0.51961519  0.93827520  0.49633503     0.05900
H1166       H  0.52544362  0.85757969  0.55745163     0.05700
N1167       N  0.59343683  0.51460181  0.37709124    -0.06500
N1168       N  0.60769903  0.52442934  0.40798583    -0.58600
N1169       N  0.59254702  0.98101685  0.61919241    -0.06200
N1170       N  0.60603706  0.96978346  0.58820435    -0.60700
N1171       N  0.59445608  0.51484212  0.62013437    -0.05800
N1172       N  0.60929781  0.52477533  0.58989442    -0.58600
N1173       N  0.59152261  0.98080016  0.37663849    -0.05400
N1174       N  0.60458560  0.96946217  0.40713830    -0.61100
C1175       C  0.61592947  0.99293643  0.42599380     0.95700
C1176       C  0.61796357  0.50029660  0.57074764     0.95500
N1177       N  0.51113593  0.94053718  0.61753773    -0.06700
N1178       N  0.49994750  0.92724438  0.58655407    -0.59200
N1179       N  0.53879826  0.93739127  0.37461786    -0.04800
N1180       N  0.54730433  0.92194674  0.40461661    -0.60400
N1181       N  0.51027537  0.94030712  0.37493000    -0.06700
N1182       N  0.49875400  0.92699808  0.40538798    -0.59400
N1183       N  0.53964324  0.93751201  0.61781717    -0.04400
N1184       N  0.54845361  0.92190289  0.58719764    -0.60500
Mn1185     Mn  0.56632423  0.95834639  0.66368560     1.18400
C1186       C  0.52345479  0.91562543  0.56816239     0.97800
C1187       C  0.52214756  0.91557170  0.42335628     0.98400
N1188       N  0.54691722  0.56382774  0.62105935    -0.06700
N1189       N  0.55735208  0.57817344  0.59081076    -0.63000
N1190       N  0.51753753  0.56402752  0.37821656    -0.05500
N1191       N  0.50756907  0.57874562  0.40901156    -0.63700
N1192       N  0.54620761  0.56357601  0.37820718    -0.06200
N1193       N  0.55638265  0.57790267  0.40899965    -0.63300
N1194       N  0.51824744  0.56423570  0.62116088    -0.05100
N1195       N  0.50853185  0.57886508  0.59105047    -0.64000
Mn1196     Mn  0.57104708  0.53996217  0.66578495     1.10700
C1197       C  0.53313756  0.58749218  0.57261047     0.99000
C1198       C  0.53206440  0.58732826  0.42770640     0.99100
N1199       N  0.96683661  0.99271326  0.37554015    -0.06200
N1200       N  0.95103445  0.98389848  0.40554627    -0.61600
N1201       N  0.96928709  0.51580301  0.61946837    -0.05500
N1202       N  0.95522271  0.52595742  0.58906373    -0.58300
N1203       N  0.96796691  0.99292471  0.61874848    -0.06900
N1204       N  0.95270465  0.98419727  0.58816800    -0.61200
N1205       N  0.96832120  0.51556241  0.37646341    -0.05800
N1206       N  0.95375162  0.52560121  0.40724627    -0.58400
Mn1207     Mn  0.98834639  0.96589167  0.66334563     1.20200
Mn1208     Mn  0.99221907  0.54058199  0.66554459     1.10100
Cl1209     Cl  0.53121942  0.50122025  0.66458637    -0.86300
C1210       C  0.94452349  0.00887695  0.42506094     0.96000
C1211       C  0.94647969  0.50160560  0.56977528     0.95800
C1212       C  0.52545454  0.77872499  0.51533380     0.29400
C1213       C  0.52361257  0.75420187  0.53914997    -0.36900
C1214       C  0.52728964  0.72717283  0.52012935     0.15400
C1215       C  0.53240067  0.72442230  0.48046161     0.21200
C1216       C  0.03420685  0.74892557  0.45666663    -0.35000
C1217       C  0.53058070  0.77600265  0.47566438     0.15300
O1218       O  0.52257811  0.80606590  0.52695558    -0.27100
C1219       C  0.52580936  0.82123194  0.49431728     0.05100
C1220       C  0.53090005  0.80350019  0.46144354    -0.31900
O1221       O  0.53482911  0.69703077  0.46880431    -0.23800
C1222       C  0.53131975  0.68189405  0.50143867    -0.03800
C1223       C  0.52652290  0.69968900  0.53431490    -0.18200
H1224       H  0.51950901  0.75606149  0.57029805     0.19800
H1225       H  0.03819198  0.74704303  0.42549398     0.18200
H1226       H  0.03476517  0.80966005  0.43145461     0.18100
H1227       H  0.52257640  0.69354079  0.56428808     0.14000
C1228       C  0.80823081  0.50056251  0.47978596     0.29400
C1229       C  0.78343954  0.50007263  0.45608184    -0.36900
C1230       C  0.75655496  0.50019351  0.47583181     0.15400
C1231       C  0.75415957  0.00099685  0.51597858     0.21200
C1232       C  0.77890427  0.00391535  0.53957174    -0.35000
C1233       C  0.80584086  0.00364004  0.51988600     0.15300
O1234       O  0.83552038  0.50056305  0.46754731    -0.27100
C1235       C  0.85102810  0.00459486  0.50023767     0.05100
C1236       C  0.83345279  0.00616013  0.53372253    -0.31900
O1237       O  0.72684555  0.00048188  0.52820982    -0.23800
C1238       C  0.71142484  0.99722516  0.49555997    -0.03800
C1239       C  0.72889980  0.49981681  0.46190299    -0.18200
H1240       H  0.78500255  0.49962995  0.42447879     0.19800
H1241       H  0.77727209  0.00622991  0.57106138     0.18200
H1242       H  0.83975041  0.00908481  0.56393343     0.18100
H1243       H  0.72252829  0.49932585  0.43153193     0.14000
C1244       C  0.67910150  0.99511423  0.82944967     0.02800
C1245       C  0.66404870  0.99450689  0.86546067    -0.13400
C1246       C  0.63352458  0.50012964  0.86657271     0.00300
C1247       C  0.61775660  0.49985260  0.83173978    -0.11900
C1248       C  0.63244535  0.49968656  0.79576689     0.02800
C1249       C  0.66295848  0.99404998  0.79458589    -0.11300
H1250       H  0.67593496  0.99587882  0.89269241     0.08400
H1251       H  0.59412617  0.49986369  0.83262697     0.05900
H1252       H  0.67373272  0.99535026  0.76642667     0.05700
C1253       C  0.88334377  0.00681211  0.83302522     0.02800
C1254       C  0.89839615  0.00747093  0.79702008    -0.13400
C1255       C  0.92885501  0.00989014  0.79589448     0.00300
C1256       C  0.94454004  0.01162559  0.83079817    -0.11900
C1257       C  0.92991269  0.01034886  0.86678458     0.02800
C1258       C  0.89948070  0.00793775  0.86789418    -0.12100
H1259       H  0.88651727  0.00605764  0.76978523     0.08400
H1260       H  0.96813814  0.01290683  0.82994033     0.05900
H1261       H  0.88870947  0.00660207  0.89605146     0.05700
C1262       C  0.53205540  0.64958032  0.83477208     0.02800
C1263       C  0.53284587  0.63402437  0.86992227    -0.13400
C1264       C  0.53334396  0.60352852  0.86925932     0.00300
C1265       C  0.53308011  0.58829363  0.83349958    -0.11900
C1266       C  0.53228624  0.60345701  0.79836876     0.02800
C1267       C  0.53186897  0.63397231  0.79901379    -0.11300
H1268       H  0.53315366  0.64534435  0.89790288     0.08400
H1269       H  0.53331135  0.56468177  0.83301893     0.05900
H1270       H  0.53123576  0.64547178  0.77160973     0.05700
C1271       C  0.52409221  0.85349982  0.82764335     0.02800
C1272       C  0.52274660  0.86905731  0.79255418    -0.13400
C1273       C  0.52092226  0.89950383  0.79330662     0.00300
C1274       C  0.52043781  0.91468080  0.82912436    -0.11900
C1275       C  0.52222936  0.89951979  0.86418857     0.02800
C1276       C  0.52396620  0.86906260  0.86342715    -0.11300
H1277       H  0.52314908  0.85777826  0.76453947     0.08400
H1278       H  0.51961290  0.93827740  0.82966957     0.05900
H1279       H  0.52544616  0.85757756  0.89077478     0.05700
N1280       N  0.59343643  0.51459610  0.71042606    -0.06500
N1281       N  0.60769825  0.52442393  0.74132073    -0.58600
N1282       N  0.59254623  0.98101212  0.95252772    -0.06200
N1283       N  0.60603638  0.96977924  0.92153925    -0.60700
N1284       N  0.59445573  0.51484695  0.95346750    -0.05800
N1285       N  0.60929777  0.52477983  0.92322755    -0.58600
N1286       N  0.59152400  0.98080786  0.70997079    -0.05400
N1287       N  0.60458486  0.96947019  0.74047247    -0.61100
C1288       C  0.61592724  0.99294461  0.75932922     0.95700
C1289       C  0.61796407  0.50030078  0.90408188     0.95500
N1290       N  0.51113455  0.94053267  0.95087119    -0.06700
N1291       N  0.49994659  0.92724113  0.91988616    -0.59200
N1292       N  0.53880027  0.93739892  0.70794941    -0.04800
N1293       N  0.54730625  0.92195433  0.73794810    -0.60400
N1294       N  0.51027740  0.94031462  0.70826115    -0.06700
N1295       N  0.49875590  0.92700551  0.73871900    -0.59400
N1296       N  0.53964184  0.93750729  0.95115127    -0.04400
N1297       N  0.54845257  0.92189917  0.92053091    -0.60500
Mn1298     Mn  0.56632251  0.95834180  0.99702048     1.18400
C1299       C  0.52345406  0.91562248  0.90149437     0.97800
C1300       C  0.52214944  0.91557941  0.75668767     0.98400
N1301       N  0.54691614  0.56383317  0.95439266    -0.06700
N1302       N  0.55735094  0.57817985  0.92414478    -0.63000
N1303       N  0.51753756  0.56402170  0.71155131    -0.05500
N1304       N  0.50756922  0.57874072  0.74234560    -0.63700
N1305       N  0.54620763  0.56357009  0.71154196    -0.06200
N1306       N  0.55638282  0.57789760  0.74233361    -0.63300
N1307       N  0.51824635  0.56424075  0.95449384    -0.05100
N1308       N  0.50853077  0.57887072  0.92438378    -0.64000
Mn1309     Mn  0.57104627  0.53996681  0.99911801     1.10700
C1310       C  0.53313649  0.58749900  0.90594455     0.99000
C1311       C  0.53206465  0.58732371  0.76104000     0.99100
N1312       N  0.96683883  0.99272011  0.70887109    -0.06200
N1313       N  0.95103581  0.98390457  0.73887589    -0.61600
N1314       N  0.96928671  0.51580665  0.95280098    -0.05500
N1315       N  0.95522117  0.52596106  0.92239736    -0.58300
N1316       N  0.96796669  0.99292056  0.95208059    -0.06900
N1317       N  0.95270590  0.98419276  0.92149900    -0.61200
N1318       N  0.96832122  0.51555700  0.70979774    -0.05800
N1319       N  0.95375113  0.52559666  0.74057954    -0.58400
Mn1320     Mn  0.98834458  0.96588791  0.99667867     1.20200
Mn1321     Mn  0.99221822  0.54058559  0.99887713     1.10100
Cl1322     Cl  0.53121924  0.50122440  0.99791887    -0.86300
C1323       C  0.94452373  0.00888251  0.75839093     0.96000
C1324       C  0.94647862  0.50160921  0.90310864     0.95800
C1325       C  0.52545922  0.77872697  0.84865006     0.29400
C1326       C  0.52361688  0.75420411  0.87246592    -0.36900
C1327       C  0.52729340  0.72717523  0.85344565     0.15400
C1328       C  0.53240437  0.72442395  0.81377805     0.21200
C1329       C  0.03420963  0.74892731  0.78998227    -0.35000
C1330       C  0.53058518  0.77600504  0.80898050     0.15300
O1331       O  0.52258300  0.80606741  0.86027305    -0.27100
C1332       C  0.52581412  0.82123439  0.82763587     0.05100
C1333       C  0.53090451  0.80350340  0.79476088    -0.31900
O1334       O  0.53483248  0.69703172  0.80212227    -0.23800
C1335       C  0.53132290  0.68189603  0.83475793    -0.03800
C1336       C  0.52652616  0.69969219  0.86763264    -0.18200
H1337       H  0.51951340  0.75606384  0.90361399     0.19800
H1338       H  0.03819371  0.74704457  0.75880947     0.18200
H1339       H  0.03476717  0.80966406  0.76477168     0.18100
H1340       H  0.52257942  0.69354538  0.89760639     0.14000
C1341       C  0.80823029  0.50054000  0.81311944     0.29400
C1342       C  0.78343916  0.50001758  0.78941551    -0.36900
C1343       C  0.75655459  0.50016426  0.80916548     0.15400
C1344       C  0.75416141  0.00096040  0.84931647     0.21200
C1345       C  0.77890863  0.00383329  0.87291372    -0.35000
C1346       C  0.80584324  0.00359620  0.85322251     0.15300
O1347       O  0.83551986  0.50052490  0.80088080    -0.27100
C1348       C  0.85102881  0.00458945  0.83356930     0.05100
C1349       C  0.83345661  0.00608987  0.86706163    -0.31900
O1350       O  0.72684854  0.00042327  0.86155061    -0.23800
C1351       C  0.71142417  0.99722890  0.82889423    -0.03800
C1352       C  0.72889951  0.49976799  0.79523693    -0.18200
H1353       H  0.78500225  0.49953253  0.75781273     0.19800
H1354       H  0.77727972  0.00608747  0.90441025     0.18200
H1355       H  0.83975634  0.00895318  0.89728069     0.18100
H1356       H  0.72252791  0.49923348  0.76486615     0.14000
loop_ 
_geom_bond_atom_site_label_1 
_geom_bond_atom_site_label_2 
_geom_bond_distance 
_geom_bond_site_symmetry_2 
_ccdc_geom_bond_type 
C1            C2   1.407       .  A
C1            C6   1.408       .  A
C1          C108   1.484       .  S
C2          C342   1.401       .  A
C2            H7   1.084       .  S
C3            C4   1.400       .  A
C3          C341   1.402       .  A
C3           C46   1.466       .  S
C4            C5   1.399       .  A
C4            H8   1.084       .  S
C5          C345   1.401       .  A
C5          C384   1.465       .  S
C6          C344   1.399       .  A
C6            H9   1.081       .  S
C10          C11   1.407       .  A
C10          C15   1.408       .  A
C10         C105   1.484       .  S
C11          C12   1.401       .  A
C11          H16   1.084       .  S
C12          C13   1.398       .  A
C12          C80   1.463       .  S
C13          C14   1.398       .  A
C13          H17   1.085       .  S
C14          C15   1.399       .  A
C14         C420   1.462       .  S
C15          H18   1.081       .  S
C19          C20   1.408       .  A
C19          C24   1.407       .  A
C19          C92   1.484       .  S
C20          C21   1.401       .  A
C20          H25   1.082       .  S
C21          C22   1.399       .  A
C21          C67   1.465       .  S
C22          C23   1.399       .  A
C22          H26   1.085       .  S
C23          C24   1.401       .  A
C23          C68   1.465       .  S
C24          H27   1.084       .  S
C28          C29   1.409       .  A
C28          C33   1.407       .  A
C28          C89   1.485       .  S
C29          C30   1.401       .  A
C29          H34   1.082       .  S
C30          C31   1.399       .  A
C30          C57   1.465       .  S
C31          C32   1.399       .  A
C31          H35   1.085       .  S
C32          C33   1.402       .  A
C32          C56   1.465       .  S
C33          H36   1.084       .  S
N37          N38   1.320       .  A
N37         N382   1.316   1_545  A
N37        Mn292   2.198   1_554  S
N38         C384   1.350   1_545  A
N39          N40   1.320       .  A
N39         N380   1.316       .  A
N39         Mn55   2.199       .  S
N40         C385   1.350       .  A
N41          N42   1.320       .  A
N41         N378   1.316   1_545  A
N41         Mn66   2.199       .  S
N42          C46   1.351   1_545  A
N43          N44   1.320       .  A
N43         N376   1.316       .  A
N43        Mn281   2.201   1_554  S
N44          C45   1.351       .  A
C45         C344   1.462       .  S
C45         N377   1.350       .  A
C46         N379   1.352       .  A
N47          N53   1.316       .  A
N47          N48   1.320       .  A
N47        Mn755   2.201   1_455  S
N48          C56   1.350       .  A
N49          N50   1.320       .  A
N49          N51   1.316       .  A
N49        Mn281   2.200   1_554  S
N50          C57   1.351       .  A
N51          N52   1.321       .  A
N51        Mn981   2.203   1_454  S
N52          C57   1.352       .  A
N53          N54   1.322       .  A
N53         Mn55   2.205       .  S
N54          C56   1.352       .  A
Mn55        N156   2.201       .  S
Mn55        N162   2.200       .  S
Mn55       Cl418   2.547       .  S
N58          N59   1.322       .  A
N58          N64   1.316       .  A
N58         Mn66   2.208       .  S
N59          C67   1.353       .  A
N60          N62   1.316       .  A
N60          N61   1.321       .  A
N60        Mn982   2.202   1_454  S
N61          C68   1.351       .  A
N62          N63   1.321       .  A
N62        Mn292   2.204   1_554  S
N63          C68   1.351       .  A
N64          N65   1.319       .  A
N64        Mn756   2.195   1_455  S
N65          C67   1.349       .  A
Mn66        N150   2.199       .  S
Mn66        N175   2.204       .  S
Mn66        Cl79   2.548       .  S
N69          N70   1.320       .  A
N69         N414   1.316       .  A
N69        Mn303   2.201   1_554  S
N70          C80   1.351       .  A
N71          N72   1.322       .  A
N71         N412   1.316   1_545  A
N71         Mn78   2.208       .  S
N72          C81   1.352       .  A
N73          N74   1.320       .  A
N73         N410   1.316       .  A
N73         Mn77   2.198       .  S
N74         C420   1.350       .  A
N75          N76   1.321       .  A
N75         N408   1.316   1_545  A
N75        Mn304   2.205   1_554  S
N76         C419   1.352       .  A
Mn77        N725   2.201       .  S
Mn77        N842   2.203       .  S
Mn77        N182   2.201       .  S
Mn77      Cl1096   2.547       .  S
Mn78        N851   2.202       .  S
Mn78        N742   2.195       .  S
Mn78        N188   2.205       .  S
Mn78       Cl757   2.548       .  S
Cl79       Mn394   2.548   1_545  S
Cl79      Mn1094   2.548   1_445  S
Cl79       Mn756   2.548   1_455  S
C80         N415   1.351       .  A
C81         C353   1.465       .  S
C81         N413   1.350   1_545  A
C82          C87   1.379       .  A
C82          C83   1.403       .  A
C82          O88   1.318       .  A
C83          C84   1.403       .  A
C83          H94   1.082       .  S
C84          C93   1.361       .  A
C84          C85   1.379       .  A
C85         C764   1.403       .  A
C85          O91   1.318       .  A
C86         C763   1.403       .  A
C86         C765   1.402       .  A
C86          H95   1.082       .  S
C87          C90   1.360       .  A
C87         C764   1.402       .  A
O88          C89   1.333       .  A
C89          C90   1.396       .  A
C90         H774   1.081       .  S
O91          C92   1.332       .  A
C92          C93   1.396       .  A
C93          H97   1.081       .  S
H96         C768   1.081       .  S
C98          C99   1.403   1_545  A
C98         C442   1.378       .  A
C98         O104   1.318       .  A
C99         C100   1.403       .  A
C99         H110   1.082       .  S
C100        C109   1.360       .  A
C100        C440   1.378   1_565  A
C101        C102   1.402       .  A
C101        C439   1.378       .  A
C101        O107   1.317       .  A
C102        C103   1.402       .  A
C102        H111   1.082       .  S
C103        C106   1.359       .  A
C103        C437   1.378       .  A
O104        C444   1.333       .  A
C105        C106   1.396       .  A
C105        O443   1.332       .  A
C106        H112   1.081       .  S
O107        C108   1.332       .  A
C108        C448   1.396       .  A
C109        C447   1.396       .  A
C109        H113   1.081       .  S
C114        C115   1.407       .  A
C114        C119   1.408       .  A
C114        C221   1.484       .  S
C115        C455   1.401       .  A
C115        H120   1.084       .  S
C116        C454   1.402       .  A
C116        C117   1.400       .  A
C116        C159   1.466       .  S
C117        C118   1.399       .  A
C117        H121   1.084       .  S
C118        C458   1.401       .  A
C118        C497   1.465       .  S
C119        C457   1.399       .  A
C119        H122   1.081       .  S
C123        C124   1.407       .  A
C123        C128   1.408       .  A
C123        C218   1.484       .  S
C124        C125   1.401       .  A
C124        H129   1.084       .  S
C125        C126   1.398       .  A
C125        C193   1.463       .  S
C126        C127   1.398       .  A
C126        H130   1.085       .  S
C127        C128   1.399       .  A
C127        C533   1.462       .  S
C128        H131   1.081       .  S
C132        C133   1.408       .  A
C132        C137   1.407       .  A
C132        C205   1.484       .  S
C133        C134   1.401       .  A
C133        H138   1.082       .  S
C134        C135   1.399       .  A
C134        C180   1.465       .  S
C135        C136   1.399       .  A
C135        H139   1.085       .  S
C136        C137   1.401       .  A
C136        C181   1.465       .  S
C137        H140   1.084       .  S
C141        C142   1.409       .  A
C141        C146   1.407       .  A
C141        C202   1.485       .  S
C142        C143   1.401       .  A
C142        H147   1.082       .  S
C143        C144   1.399       .  A
C143        C170   1.465       .  S
C144        C145   1.399       .  A
C144        H148   1.085       .  S
C145        C146   1.402       .  A
C145        C169   1.465       .  S
C146        H149   1.084       .  S
N150        N151   1.320       .  A
N150        N495   1.316   1_545  A
N151        C497   1.350   1_545  A
N152        N493   1.316       .  A
N152        N153   1.320       .  A
N152       Mn168   2.199       .  S
N153        C498   1.350       .  A
N154        N491   1.316   1_545  A
N154        N155   1.320       .  A
N154       Mn179   2.199       .  S
N155        C159   1.351   1_545  A
N156        N489   1.316       .  A
N156        N157   1.320       .  A
N157        C158   1.351       .  A
C158        C457   1.462       .  S
C158        N490   1.350       .  A
C159        N492   1.352       .  A
N160        N166   1.316       .  A
N160        N161   1.320       .  A
N160       Mn868   2.201   1_455  S
N161        C169   1.350       .  A
N162        N163   1.320       .  A
N162        N164   1.316       .  A
N163        C170   1.351       .  A
N164        N165   1.321       .  A
N164       Mn755   2.203   1_455  S
N165        C170   1.352       .  A
N166        N167   1.322       .  A
N166       Mn168   2.205       .  S
N167        C169   1.352       .  A
Mn168       N269   2.201       .  S
Mn168       N275   2.200       .  S
Mn168      Cl531   2.547       .  S
N171        N172   1.322       .  A
N171        N177   1.316       .  A
N171       Mn179   2.208       .  S
N172        C180   1.353       .  A
N173        N175   1.316       .  A
N173        N174   1.321       .  A
N173       Mn756   2.202   1_455  S
N174        C181   1.351       .  A
N175        N176   1.321       .  A
N176        C181   1.351       .  A
N177        N178   1.319       .  A
N177       Mn869   2.195   1_455  S
N178        C180   1.349       .  A
Mn179       N263   2.199       .  S
Mn179       N288   2.204       .  S
Mn179      Cl192   2.548       .  S
N182        N183   1.320       .  A
N182        N527   1.316       .  A
N183        C193   1.351       .  A
N184        N185   1.322       .  A
N184        N525   1.316   1_545  A
N184       Mn191   2.208       .  S
N185        C194   1.352       .  A
N186        N523   1.316       .  A
N186        N187   1.320       .  A
N186       Mn190   2.198       .  S
N187        C533   1.350       .  A
N188        N521   1.316   1_545  A
N188        N189   1.321       .  A
N189        C532   1.352       .  A
Mn190       N838   2.201       .  S
Mn190       N955   2.203       .  S
Mn190       N295   2.201       .  S
Mn190     Cl1209   2.547       .  S
Mn191       N964   2.202       .  S
Mn191       N855   2.195       .  S
Mn191       N301   2.205       .  S
Mn191      Cl870   2.548       .  S
Cl192      Mn507   2.548   1_545  S
Cl192     Mn1207   2.548   1_445  S
Cl192      Mn869   2.548   1_455  S
C193        N528   1.351       .  A
C194        C466   1.465       .  S
C194        N526   1.350   1_545  A
C195        C200   1.379       .  A
C195        C196   1.403       .  A
C195        O201   1.318       .  A
C196        C197   1.403       .  A
C196        H207   1.082       .  S
C197        C206   1.361       .  A
C197        C198   1.379       .  A
C198        C877   1.403       .  A
C198        O204   1.318       .  A
C199        C876   1.403       .  A
C199        C878   1.402       .  A
C199        H208   1.082       .  S
C200        C877   1.402       .  A
C200        C203   1.360       .  A
O201        C202   1.333       .  A
C202        C203   1.396       .  A
C203        H887   1.081       .  S
O204        C205   1.332       .  A
C205        C206   1.396       .  A
C206        H210   1.081       .  S
H209        C881   1.081       .  S
C211        C555   1.378       .  A
C211        C212   1.403   1_545  A
C211        O217   1.318       .  A
C212        C213   1.403       .  A
C212        H223   1.082       .  S
C213        C222   1.360       .  A
C213        C553   1.378   1_565  A
C214        C552   1.378       .  A
C214        C215   1.402       .  A
C214        O220   1.317       .  A
C215        C216   1.402       .  A
C215        H224   1.082       .  S
C216        C550   1.378       .  A
C216        C219   1.359       .  A
O217        C557   1.333       .  A
C218        C219   1.396       .  A
C218        O556   1.332       .  A
C219        H225   1.081       .  S
O220        C221   1.332       .  A
C221        C561   1.396       .  A
C222        C560   1.396       .  A
C222        H226   1.081       .  S
C227        C228   1.407       .  A
C227        C232   1.408       .  A
C227        C334   1.484       .  S
C228        C568   1.401       .  A
C228        H233   1.084       .  S
C229        C567   1.402       .  A
C229        C230   1.400       .  A
C229        C272   1.466       .  S
C230        C231   1.399       .  A
C230        H234   1.084       .  S
C231        C571   1.401       .  A
C231        C610   1.465       .  S
C232        C570   1.399       .  A
C232        H235   1.081       .  S
C236        C237   1.407       .  A
C236        C241   1.408       .  A
C236        C331   1.484       .  S
C237        C238   1.401       .  A
C237        H242   1.084       .  S
C238        C239   1.398       .  A
C238        C306   1.463       .  S
C239        C240   1.398       .  A
C239        H243   1.085       .  S
C240        C241   1.399       .  A
C240        C646   1.462       .  S
C241        H244   1.081       .  S
C245        C246   1.408       .  A
C245        C250   1.407       .  A
C245        C318   1.484       .  S
C246        C247   1.401       .  A
C246        H251   1.082       .  S
C247        C248   1.399       .  A
C247        C293   1.465       .  S
C248        C249   1.399       .  A
C248        H252   1.085       .  S
C249        C250   1.401       .  A
C249        C294   1.465       .  S
C250        H253   1.084       .  S
C254        C255   1.409       .  A
C254        C259   1.407       .  A
C254        C315   1.485       .  S
C255        C256   1.401       .  A
C255        H260   1.082       .  S
C256        C257   1.399       .  A
C256        C283   1.465       .  S
C257        C258   1.399       .  A
C257        H261   1.085       .  S
C258        C259   1.402       .  A
C258        C282   1.465       .  S
C259        H262   1.084       .  S
N263        N264   1.320       .  A
N263        N608   1.316   1_545  A
N264        C610   1.350   1_545  A
N265        N606   1.316       .  A
N265        N266   1.320       .  A
N265       Mn281   2.199       .  S
N266        C611   1.350       .  A
N267        N604   1.316   1_545  A
N267        N268   1.320       .  A
N267       Mn292   2.199       .  S
N268        C272   1.351   1_545  A
N269        N602   1.316       .  A
N269        N270   1.320       .  A
N270        C271   1.351       .  A
C271        C570   1.462       .  S
C271        N603   1.350       .  A
C272        N605   1.352       .  A
N273        N279   1.316       .  A
N273        N274   1.320       .  A
N273       Mn981   2.201   1_455  S
N274        C282   1.350       .  A
N275        N276   1.320       .  A
N275        N277   1.316       .  A
N276        C283   1.351       .  A
N277        N278   1.321       .  A
N277       Mn868   2.203   1_455  S
N278        C283   1.352       .  A
N279        N280   1.322       .  A
N279       Mn281   2.205       .  S
N280        C282   1.352       .  A
Mn281      Cl644   2.547       .  S
N284        N285   1.322       .  A
N284        N290   1.316       .  A
N284       Mn292   2.208       .  S
N285        C293   1.353       .  A
N286        N288   1.316       .  A
N286        N287   1.321       .  A
N286       Mn869   2.202   1_455  S
N287        C294   1.351       .  A
N288        N289   1.321       .  A
N289        C294   1.351       .  A
N290        N291   1.319       .  A
N290       Mn982   2.195   1_455  S
N291        C293   1.349       .  A
Mn292      Cl305   2.548       .  S
N295        N296   1.320       .  A
N295        N640   1.316       .  A
N296        C306   1.351       .  A
N297        N298   1.322       .  A
N297        N638   1.316   1_545  A
N297       Mn304   2.208       .  S
N298        C307   1.352       .  A
N299        N636   1.316       .  A
N299        N300   1.320       .  A
N299       Mn303   2.198       .  S
N300        C646   1.350       .  A
N301        N634   1.316   1_545  A
N301        N302   1.321       .  A
N302        C645   1.352       .  A
Mn303       N951   2.201       .  S
Mn303       N729   2.203   1_556  S
Mn303     Cl1322   2.547       .  S
Mn304       N738   2.202   1_556  S
Mn304       N968   2.195       .  S
Mn304      Cl983   2.548       .  S
Cl305      Mn620   2.548   1_545  S
Cl305     Mn1320   2.548   1_445  S
Cl305      Mn982   2.548   1_455  S
C306        N641   1.351       .  A
C307        C579   1.465       .  S
C307        N639   1.350   1_545  A
C308        C313   1.379       .  A
C308        C309   1.403       .  A
C308        O314   1.318       .  A
C309        C310   1.403       .  A
C309        H320   1.082       .  S
C310        C319   1.361       .  A
C310        C311   1.379       .  A
C311        C990   1.403       .  A
C311        O317   1.318       .  A
C312        C989   1.403       .  A
C312        C991   1.402       .  A
C312        H321   1.082       .  S
C313        C990   1.402       .  A
C313        C316   1.360       .  A
O314        C315   1.333       .  A
C315        C316   1.396       .  A
C316       H1000   1.081       .  S
O317        C318   1.332       .  A
C318        C319   1.396       .  A
C319        H323   1.081       .  S
H322        C994   1.081       .  S
C324        C668   1.378       .  A
C324        C325   1.403   1_545  A
C324        O330   1.318       .  A
C325        C326   1.403       .  A
C325        H336   1.082       .  S
C326        C335   1.360       .  A
C326        C666   1.378   1_565  A
C327        C665   1.378       .  A
C327        C328   1.402       .  A
C327        O333   1.317       .  A
C328        C329   1.402       .  A
C328        H337   1.082       .  S
C329        C663   1.378       .  A
C329        C332   1.359       .  A
O330        C670   1.333       .  A
C331        C332   1.396       .  A
C331        O669   1.332       .  A
C332        H338   1.081       .  S
O333        C334   1.332       .  A
C334        C674   1.396       .  A
C335        C673   1.396       .  A
C335        H339   1.081       .  S
C340        C341   1.408       .  A
C340        C345   1.409       .  A
C340        C447   1.486       .  S
C341        H346   1.084       .  S
C342        C343   1.398       .  A
C342        C385   1.463       .  S
C343        C344   1.398       .  A
C343        H347   1.085       .  S
C345        H348   1.081       .  S
C349        C350   1.408       .  A
C349        C354   1.409       .  A
C349        C444   1.486       .  S
C350        C351   1.402       .  A
C350        H355   1.084       .  S
C351        C352   1.400       .  A
C351        C419   1.465       .  S
C352        C353   1.399       .  A
C352        H356   1.084       .  S
C353        C354   1.401       .  A
C354        H357   1.081       .  S
C358        C359   1.409       .  A
C358        C363   1.407       .  A
C358        C431   1.485       .  S
C359        C360   1.401       .  A
C359        H364   1.082       .  S
C360        C361   1.399       .  A
C360        C406   1.465       .  S
C361        C362   1.399       .  A
C361        H365   1.085       .  S
C362        C363   1.402       .  A
C362        C407   1.465       .  S
C363        H366   1.084       .  S
C367        C368   1.408       .  A
C367        C372   1.407       .  A
C367        C428   1.484       .  S
C368        C369   1.401       .  A
C368        H373   1.082       .  S
C369        C370   1.399       .  A
C369        C396   1.464       .  S
C370        C371   1.399       .  A
C370        H374   1.085       .  S
C371        C372   1.401       .  A
C371        C395   1.465       .  S
C372        H375   1.084       .  S
N376        N377   1.320       .  A
N376       Mn631   2.199   1_554  S
N378        N379   1.321       .  A
N378       Mn394   2.205       .  S
N380        N381   1.321       .  A
N380       Mn405   2.201       .  S
N381        C385   1.351       .  A
N382        N383   1.322       .  A
N382       Mn620   2.208   1_554  S
N383        C384   1.352       .  A
N386        N392   1.316       .  A
N386        N387   1.321       .  A
N386      Mn1094   2.204   1_455  S
N387        C395   1.351       .  A
N388        N389   1.319       .  A
N388        N390   1.316       .  A
N388       Mn620   2.196   1_554  S
N389        C396   1.350       .  A
N390        N391   1.322   1_455  A
N390      Mn1320   2.207   1_454  S
N391        C396   1.353   1_655  A
N392        N393   1.321       .  A
N392       Mn394   2.202       .  S
N393        C395   1.352       .  A
Mn394       N495   2.208       .  S
Mn394       N501   2.196       .  S
N397        N398   1.321       .  A
N397        N403   1.316       .  A
N397       Mn405   2.203       .  S
N398        C406   1.352       .  A
N399        N401   1.316       .  A
N399        N400   1.321       .  A
N399      Mn1321   2.205   1_454  S
N400        C407   1.352       .  A
N401        N402   1.320       .  A
N401       Mn631   2.201   1_554  S
N402        C407   1.351       .  A
N403        N404   1.320       .  A
N403      Mn1095   2.200   1_455  S
N404        C406   1.350       .  A
Mn405       N489   2.199       .  S
Mn405       N514   2.201       .  S
Mn405      Cl418   2.547       .  S
N408        N409   1.320       .  A
N408       Mn642   2.199   1_554  S
N409        C419   1.351   1_565  A
N410        N411   1.320       .  A
N410       Mn417   2.202       .  S
N411        C420   1.351       .  A
N412        N413   1.320       .  A
N412       Mn416   2.198       .  S
N414        N415   1.320       .  A
N414       Mn643   2.200   1_554  S
Mn416      N1064   2.204       .  S
Mn416      N1181   2.208       .  S
Mn416       N521   2.199       .  S
Mn416      Cl757   2.548   1_565  S
Mn417      N1190   2.205       .  S
Mn417      N1081   2.199       .  S
Mn417       N527   2.200       .  S
Mn417     Cl1096   2.547       .  S
Cl418      Mn755   2.547   1_455  S
Cl418     Mn1095   2.547   1_455  S
C421        C426   1.379       .  A
C421        C422   1.403       .  A
C421        O427   1.318       .  A
C422        C423   1.402       .  A
C422        H433   1.082       .  S
C423        C432   1.360       .  A
C423        C424   1.379       .  A
C424       C1103   1.403       .  A
C424        O430   1.318       .  A
C425       C1102   1.404       .  A
C425       C1104   1.403       .  A
C425        H434   1.082       .  S
C426       C1103   1.403       .  A
C426        C429   1.361       .  A
O427        C428   1.332       .  A
C428        C429   1.396       .  A
C429       H1113   1.081       .  S
O430        C431   1.333       .  A
C431        C432   1.395       .  A
C432        H436   1.081       .  S
H435       C1107   1.081       .  S
C437        C438   1.402       .  A
C437        O443   1.317       .  A
C438        C439   1.402       .  A
C438        H449   1.082       .  S
C439        C448   1.359       .  A
C440        C441   1.403       .  A
C440        O446   1.318       .  A
C441        C442   1.403       .  A
C441        H450   1.082       .  S
C442        C445   1.360       .  A
C444        C445   1.396       .  A
C445        H451   1.081       .  S
O446        C447   1.333   1_545  A
C448        H452   1.081       .  S
C453        C454   1.408       .  A
C453        C458   1.409       .  A
C453        C560   1.486       .  S
C454        H459   1.084       .  S
C455        C456   1.398       .  A
C455        C498   1.463       .  S
C456        C457   1.398       .  A
C456        H460   1.085       .  S
C458        H461   1.081       .  S
C462        C463   1.408       .  A
C462        C467   1.409       .  A
C462        C557   1.486       .  S
C463        C464   1.402       .  A
C463        H468   1.084       .  S
C464        C465   1.400       .  A
C464        C532   1.465       .  S
C465        C466   1.399       .  A
C465        H469   1.084       .  S
C466        C467   1.401       .  A
C467        H470   1.081       .  S
C471        C472   1.409       .  A
C471        C476   1.407       .  A
C471        C544   1.485       .  S
C472        C473   1.401       .  A
C472        H477   1.082       .  S
C473        C474   1.399       .  A
C473        C519   1.465       .  S
C474        C475   1.399       .  A
C474        H478   1.085       .  S
C475        C476   1.402       .  A
C475        C520   1.465       .  S
C476        H479   1.084       .  S
C480        C481   1.408       .  A
C480        C485   1.407       .  A
C480        C541   1.484       .  S
C481        C482   1.401       .  A
C481        H486   1.082       .  S
C482        C483   1.399       .  A
C482        C509   1.464       .  S
C483        C484   1.399       .  A
C483        H487   1.085       .  S
C484        C485   1.401       .  A
C484        C508   1.465       .  S
C485        H488   1.084       .  S
N489        N490   1.320       .  A
N491        N492   1.321       .  A
N491       Mn507   2.205       .  S
N493        N494   1.321       .  A
N493       Mn518   2.201       .  S
N494        C498   1.351       .  A
N495        N496   1.322       .  A
N496        C497   1.352       .  A
N499        N505   1.316       .  A
N499        N500   1.321       .  A
N499      Mn1207   2.204   1_455  S
N500        C508   1.351       .  A
N501        N502   1.319       .  A
N501        N503   1.316       .  A
N502        C509   1.350       .  A
N503        N504   1.322   1_455  A
N503      Mn1094   2.207   1_455  S
N504        C509   1.353   1_655  A
N505        N506   1.321       .  A
N505       Mn507   2.202       .  S
N506        C508   1.352       .  A
Mn507       N608   2.208       .  S
Mn507       N614   2.196       .  S
N510        N511   1.321       .  A
N510        N516   1.316       .  A
N510       Mn518   2.203       .  S
N511        C519   1.352       .  A
N512        N514   1.316       .  A
N512        N513   1.321       .  A
N512      Mn1095   2.205   1_455  S
N513        C520   1.352       .  A
N514        N515   1.320       .  A
N515        C520   1.351       .  A
N516        N517   1.320       .  A
N516      Mn1208   2.199   1_455  S
N517        C519   1.350       .  A
Mn518       N602   2.199       .  S
Mn518       N627   2.201       .  S
Mn518      Cl531   2.547       .  S
N521        N522   1.320       .  A
N522        C532   1.351   1_565  A
N523        N524   1.320       .  A
N523       Mn530   2.202       .  S
N524        C533   1.351       .  A
N525        N526   1.320       .  A
N525       Mn529   2.198       .  S
N527        N528   1.320       .  A
Mn529      N1177   2.204       .  S
Mn529      N1294   2.208       .  S
Mn529       N634   2.199       .  S
Mn529      Cl870   2.548   1_565  S
Mn530      N1303   2.205       .  S
Mn530      N1194   2.199       .  S
Mn530       N640   2.200       .  S
Mn530     Cl1209   2.547       .  S
Cl531      Mn868   2.547   1_455  S
Cl531     Mn1208   2.547   1_455  S
C534        C539   1.379       .  A
C534        C535   1.403       .  A
C534        O540   1.318       .  A
C535        C536   1.402       .  A
C535        H546   1.082       .  S
C536        C545   1.360       .  A
C536        C537   1.379       .  A
C537       C1216   1.403       .  A
C537        O543   1.318       .  A
C538       C1215   1.403       .  A
C538       C1217   1.403       .  A
C538        H547   1.082       .  S
C539       C1216   1.403       .  A
C539        C542   1.361       .  A
O540        C541   1.332       .  A
C541        C542   1.396       .  A
C542       H1226   1.081       .  S
O543        C544   1.333       .  A
C544        C545   1.395       .  A
C545        H549   1.081       .  S
H548       C1220   1.081       .  S
C550        C551   1.402       .  A
C550        O556   1.317       .  A
C551        C552   1.402       .  A
C551        H562   1.082       .  S
C552        C561   1.359       .  A
C553        C554   1.403       .  A
C553        O559   1.318       .  A
C554        C555   1.403       .  A
C554        H563   1.082       .  S
C555        C558   1.360       .  A
C557        C558   1.396       .  A
C558        H564   1.081       .  S
O559        C560   1.333   1_545  A
C561        H565   1.081       .  S
C566        C567   1.408       .  A
C566        C571   1.409       .  A
C566        C673   1.486       .  S
C567        H572   1.084       .  S
C568        C569   1.398       .  A
C568        C611   1.463       .  S
C569        C570   1.398       .  A
C569        H573   1.085       .  S
C571        H574   1.081       .  S
C575        C576   1.408       .  A
C575        C580   1.409       .  A
C575        C670   1.486       .  S
C576        C577   1.402       .  A
C576        H581   1.084       .  S
C577        C578   1.400       .  A
C577        C645   1.465       .  S
C578        C579   1.399       .  A
C578        H582   1.084       .  S
C579        C580   1.401       .  A
C580        H583   1.081       .  S
C584        C585   1.409       .  A
C584        C589   1.407       .  A
C584        C657   1.485       .  S
C585        C586   1.401       .  A
C585        H590   1.082       .  S
C586        C587   1.399       .  A
C586        C632   1.465       .  S
C587        C588   1.399       .  A
C587        H591   1.085       .  S
C588        C589   1.402       .  A
C588        C633   1.465       .  S
C589        H592   1.084       .  S
C593        C594   1.408       .  A
C593        C598   1.407       .  A
C593        C654   1.484       .  S
C594        C595   1.401       .  A
C594        H599   1.082       .  S
C595        C596   1.399       .  A
C595        C622   1.464       .  S
C596        C597   1.399       .  A
C596        H600   1.085       .  S
C597        C598   1.401       .  A
C597        C621   1.465       .  S
C598        H601   1.084       .  S
N602        N603   1.320       .  A
N604        N605   1.321       .  A
N604       Mn620   2.205       .  S
N606        N607   1.321       .  A
N606       Mn631   2.201       .  S
N607        C611   1.351       .  A
N608        N609   1.322       .  A
N609        C610   1.352       .  A
N612        N618   1.316       .  A
N612        N613   1.321       .  A
N612      Mn1320   2.204   1_455  S
N613        C621   1.351       .  A
N614        N615   1.319       .  A
N614        N616   1.316       .  A
N615        C622   1.350       .  A
N616        N617   1.322   1_455  A
N616      Mn1207   2.207   1_455  S
N617        C622   1.353   1_655  A
N618        N619   1.321       .  A
N618       Mn620   2.202       .  S
N619        C621   1.352       .  A
N623        N624   1.321       .  A
N623        N629   1.316       .  A
N623       Mn631   2.203       .  S
N624        C632   1.352       .  A
N625        N627   1.316       .  A
N625        N626   1.321       .  A
N625      Mn1208   2.205   1_455  S
N626        C633   1.352       .  A
N627        N628   1.320       .  A
N628        C633   1.351       .  A
N629        N630   1.320       .  A
N629      Mn1321   2.200   1_455  S
N630        C632   1.350       .  A
Mn631      Cl644   2.547       .  S
N634        N635   1.320       .  A
N635        C645   1.351   1_565  A
N636        N637   1.320       .  A
N636       Mn643   2.202       .  S
N637        C646   1.351       .  A
N638        N639   1.320       .  A
N638       Mn642   2.198       .  S
N640        N641   1.320       .  A
Mn642      N1290   2.204       .  S
Mn642      N1068   2.208   1_556  S
Mn642      Cl983   2.548   1_565  S
Mn643      N1077   2.205   1_556  S
Mn643      N1307   2.199       .  S
Mn643     Cl1322   2.547       .  S
Cl644      Mn981   2.547   1_455  S
Cl644     Mn1321   2.547   1_455  S
C647        C652   1.379       .  A
C647        C648   1.403       .  A
C647        O653   1.318       .  A
C648        C649   1.402       .  A
C648        H659   1.082       .  S
C649        C658   1.360       .  A
C649        C650   1.379       .  A
C650       C1329   1.403       .  A
C650        O656   1.318       .  A
C651       C1328   1.404       .  A
C651       C1330   1.403       .  A
C651        H660   1.082       .  S
C652       C1329   1.403       .  A
C652        C655   1.361       .  A
O653        C654   1.332       .  A
C654        C655   1.396       .  A
C655       H1339   1.081       .  S
O656        C657   1.333       .  A
C657        C658   1.395       .  A
C658        H662   1.081       .  S
H661       C1333   1.081       .  S
C663        C664   1.402       .  A
C663        O669   1.317       .  A
C664        C665   1.402       .  A
C664        H675   1.082       .  S
C665        C674   1.359       .  A
C666        C667   1.403       .  A
C666        O672   1.318       .  A
C667        C668   1.403       .  A
C667        H676   1.082       .  S
C668        C671   1.360       .  A
C670        C671   1.396       .  A
C671        H677   1.081       .  S
O672        C673   1.333   1_545  A
C674        H678   1.081       .  S
C679        C680   1.407       .  A
C679        C684   1.408       .  A
C679        C786   1.484       .  S
C680       C1020   1.401       .  A
C680        H685   1.084       .  S
C681       C1019   1.402       .  A
C681        C682   1.400       .  A
C681        C724   1.466       .  S
C682        C683   1.399       .  A
C682        H686   1.084       .  S
C683       C1023   1.401       .  A
C683       C1062   1.465       .  S
C684       C1022   1.399       .  A
C684        H687   1.081       .  S
C688        C689   1.407       .  A
C688        C693   1.408       .  A
C688        C783   1.484       .  S
C689        C690   1.401       .  A
C689        H694   1.084       .  S
C690        C691   1.398       .  A
C690        C758   1.463       .  S
C691        C692   1.398       .  A
C691        H695   1.085       .  S
C692        C693   1.399       .  A
C692       C1098   1.462       .  S
C693        H696   1.081       .  S
C697        C698   1.408       .  A
C697        C702   1.407       .  A
C697        C770   1.485       .  S
C698        C699   1.401       .  A
C698        H703   1.082       .  S
C699        C700   1.400       .  A
C699        C745   1.465       .  S
C700        C701   1.400       .  A
C700        H704   1.085       .  S
C701        C702   1.401       .  A
C701        C746   1.466       .  S
C702        H705   1.084       .  S
C706        C707   1.409       .  A
C706        C711   1.408       .  A
C706        C767   1.485       .  S
C707        C708   1.401       .  A
C707        H712   1.082       .  S
C708        C709   1.399       .  A
C708        C735   1.465       .  S
C709        C710   1.399       .  A
C709        H713   1.085       .  S
C710        C711   1.402       .  A
C710        C734   1.466       .  S
C711        H714   1.084       .  S
N715        N716   1.320       .  A
N715       N1060   1.316   1_545  A
N715       Mn970   2.198   1_554  S
N716       C1062   1.350   1_545  A
N717       N1058   1.316       .  A
N717        N718   1.320       .  A
N717       Mn733   2.200       .  S
N718       C1063   1.351       .  A
N719       N1056   1.316   1_545  A
N719        N720   1.320       .  A
N719       Mn744   2.199       .  S
N720        C724   1.351   1_545  A
N721       N1054   1.316       .  A
N721        N722   1.320       .  A
N721       Mn959   2.202   1_554  S
N722        C723   1.351       .  A
C723       C1022   1.462       .  S
C723       N1055   1.350       .  A
C724       N1057   1.352       .  A
N725        N731   1.316       .  A
N725        N726   1.320       .  A
N726        C734   1.351       .  A
N727        N728   1.320       .  A
N727        N729   1.316       .  A
N727       Mn959   2.200   1_554  S
N728        C735   1.350       .  A
N729        N730   1.321       .  A
N730        C735   1.352       .  A
N731        N732   1.321       .  A
N731       Mn733   2.205       .  S
N732        C734   1.352       .  A
Mn733       N834   2.202       .  S
Mn733       N840   2.200       .  S
Mn733     Cl1096   2.547       .  S
N736        N737   1.322       .  A
N736        N742   1.316       .  A
N736       Mn744   2.208       .  S
N737        C745   1.353       .  A
N738        N740   1.316       .  A
N738        N739   1.321       .  A
N739        C746   1.351       .  A
N740        N741   1.321       .  A
N740       Mn970   2.204   1_554  S
N741        C746   1.351       .  A
N742        N743   1.319       .  A
N743        C745   1.349       .  A
Mn744       N828   2.198       .  S
Mn744       N853   2.204       .  S
Mn744      Cl757   2.548       .  S
N747        N748   1.320       .  A
N747       N1092   1.316       .  A
N747       Mn981   2.201   1_554  S
N748        C758   1.351       .  A
N749        N750   1.322       .  A
N749       N1090   1.316   1_545  A
N749       Mn756   2.208       .  S
N750        C759   1.352       .  A
N751       N1088   1.316       .  A
N751        N752   1.320       .  A
N751       Mn755   2.199       .  S
N752       C1098   1.350       .  A
N753       N1086   1.316   1_545  A
N753        N754   1.321       .  A
N753       Mn982   2.204   1_554  S
N754       C1097   1.352       .  A
Mn755       N860   2.201       .  S
Mn756       N866   2.204       .  S
Cl757     Mn1072   2.548   1_545  S
C758       N1093   1.351       .  A
C759       C1031   1.465       .  S
C759       N1091   1.350   1_545  A
C760        C765   1.379       .  A
C760        C761   1.404       .  A
C760        O766   1.318       .  A
C761        C762   1.403       .  A
C761        H772   1.082       .  S
C762        C771   1.361       .  A
C762        C763   1.379       .  A
C763        O769   1.318       .  A
C764        H773   1.082       .  S
C765        C768   1.360       .  A
O766        C767   1.333       .  A
C767        C768   1.396       .  A
O769        C770   1.332       .  A
C770        C771   1.396       .  A
C771        H775   1.081       .  S
C776       C1120   1.378       .  A
C776        C777   1.403   1_545  A
C776        O782   1.318       .  A
C777        C778   1.403       .  A
C777        H788   1.082       .  S
C778        C787   1.360       .  A
C778       C1118   1.378   1_565  A
C779       C1117   1.378       .  A
C779        C780   1.402       .  A
C779        O785   1.317       .  A
C780        C781   1.402       .  A
C780        H789   1.082       .  S
C781       C1115   1.378       .  A
C781        C784   1.359       .  A
O782       C1122   1.333       .  A
C783        C784   1.396       .  A
C783       O1121   1.332       .  A
C784        H790   1.081       .  S
O785        C786   1.332       .  A
C786       C1126   1.396       .  A
C787       C1125   1.396       .  A
C787        H791   1.081       .  S
C792        C793   1.407       .  A
C792        C797   1.408       .  A
C792        C899   1.484       .  S
C793       C1133   1.401       .  A
C793        H798   1.084       .  S
C794       C1132   1.402       .  A
C794        C795   1.400       .  A
C794        C837   1.466       .  S
C795        C796   1.399       .  A
C795        H799   1.084       .  S
C796       C1136   1.401       .  A
C796       C1175   1.465       .  S
C797       C1135   1.399       .  A
C797        H800   1.081       .  S
C801        C802   1.407       .  A
C801        C806   1.408       .  A
C801        C896   1.484       .  S
C802        C803   1.401       .  A
C802        H807   1.084       .  S
C803        C804   1.398       .  A
C803        C871   1.463       .  S
C804        C805   1.398       .  A
C804        H808   1.085       .  S
C805        C806   1.399       .  A
C805       C1211   1.462       .  S
C806        H809   1.081       .  S
C810        C811   1.408       .  A
C810        C815   1.407       .  A
C810        C883   1.485       .  S
C811        C812   1.401       .  A
C811        H816   1.082       .  S
C812        C813   1.400       .  A
C812        C858   1.465       .  S
C813        C814   1.400       .  A
C813        H817   1.085       .  S
C814        C815   1.401       .  A
C814        C859   1.466       .  S
C815        H818   1.084       .  S
C819        C820   1.409       .  A
C819        C824   1.408       .  A
C819        C880   1.485       .  S
C820        C821   1.401       .  A
C820        H825   1.082       .  S
C821        C822   1.399       .  A
C821        C848   1.465       .  S
C822        C823   1.399       .  A
C822        H826   1.085       .  S
C823        C824   1.402       .  A
C823        C847   1.466       .  S
C824        H827   1.084       .  S
N828        N829   1.320       .  A
N828       N1173   1.316   1_545  A
N829       C1175   1.350   1_545  A
N830       N1171   1.316       .  A
N830        N831   1.320       .  A
N830       Mn846   2.200       .  S
N831       C1176   1.351       .  A
N832       N1169   1.316   1_545  A
N832        N833   1.320       .  A
N832       Mn857   2.199       .  S
N833        C837   1.351   1_545  A
N834       N1167   1.316       .  A
N834        N835   1.320       .  A
N835        C836   1.351       .  A
C836       C1135   1.462       .  S
C836       N1168   1.350       .  A
C837       N1170   1.352       .  A
N838        N844   1.316       .  A
N838        N839   1.320       .  A
N839        C847   1.351       .  A
N840        N841   1.320       .  A
N840        N842   1.316       .  A
N841        C848   1.350       .  A
N842        N843   1.321       .  A
N843        C848   1.352       .  A
N844        N845   1.321       .  A
N844       Mn846   2.205       .  S
N845        C847   1.352       .  A
Mn846       N947   2.202       .  S
Mn846       N953   2.200       .  S
Mn846     Cl1209   2.547       .  S
N849        N850   1.322       .  A
N849        N855   1.316       .  A
N849       Mn857   2.208       .  S
N850        C858   1.353       .  A
N851        N853   1.316       .  A
N851        N852   1.321       .  A
N852        C859   1.351       .  A
N853        N854   1.321       .  A
N854        C859   1.351       .  A
N855        N856   1.319       .  A
N856        C858   1.349       .  A
Mn857       N941   2.198       .  S
Mn857       N966   2.204       .  S
Mn857      Cl870   2.548       .  S
N860        N861   1.320       .  A
N860       N1205   1.316       .  A
N861        C871   1.351       .  A
N862        N863   1.322       .  A
N862       N1203   1.316   1_545  A
N862       Mn869   2.208       .  S
N863        C872   1.352       .  A
N864       N1201   1.316       .  A
N864        N865   1.320       .  A
N864       Mn868   2.199       .  S
N865       C1211   1.350       .  A
N866       N1199   1.316   1_545  A
N866        N867   1.321       .  A
N867       C1210   1.352       .  A
Mn868       N973   2.201       .  S
Mn869       N979   2.204       .  S
Cl870     Mn1185   2.548   1_545  S
C871       N1206   1.351       .  A
C872       C1144   1.465       .  S
C872       N1204   1.350   1_545  A
C873        C878   1.379       .  A
C873        C874   1.404       .  A
C873        O879   1.318       .  A
C874        C875   1.403       .  A
C874        H885   1.082       .  S
C875        C884   1.361       .  A
C875        C876   1.379       .  A
C876        O882   1.318       .  A
C877        H886   1.082       .  S
C878        C881   1.360       .  A
O879        C880   1.333       .  A
C880        C881   1.396       .  A
O882        C883   1.332       .  A
C883        C884   1.396       .  A
C884        H888   1.081       .  S
C889       C1233   1.378       .  A
C889        C890   1.403   1_545  A
C889        O895   1.318       .  A
C890        C891   1.403       .  A
C890        H901   1.082       .  S
C891        C900   1.360       .  A
C891       C1231   1.378   1_565  A
C892       C1230   1.378       .  A
C892        C893   1.402       .  A
C892        O898   1.317       .  A
C893        C894   1.402       .  A
C893        H902   1.082       .  S
C894       C1228   1.378       .  A
C894        C897   1.359       .  A
O895       C1235   1.333       .  A
C896        C897   1.396       .  A
C896       O1234   1.332       .  A
C897        H903   1.081       .  S
O898        C899   1.332       .  A
C899       C1239   1.396       .  A
C900       C1238   1.396       .  A
C900        H904   1.081       .  S
C905        C906   1.407       .  A
C905        C910   1.408       .  A
C905       C1012   1.484       .  S
C906       C1246   1.401       .  A
C906        H911   1.084       .  S
C907       C1245   1.402       .  A
C907        C908   1.400       .  A
C907        C950   1.466       .  S
C908        C909   1.399       .  A
C908        H912   1.084       .  S
C909       C1249   1.401       .  A
C909       C1288   1.465       .  S
C910       C1248   1.399       .  A
C910        H913   1.081       .  S
C914        C915   1.407       .  A
C914        C919   1.408       .  A
C914       C1009   1.484       .  S
C915        C916   1.401       .  A
C915        H920   1.084       .  S
C916        C917   1.398       .  A
C916        C984   1.463       .  S
C917        C918   1.398       .  A
C917        H921   1.085       .  S
C918        C919   1.399       .  A
C918       C1324   1.462       .  S
C919        H922   1.081       .  S
C923        C924   1.408       .  A
C923        C928   1.407       .  A
C923        C996   1.485       .  S
C924        C925   1.401       .  A
C924        H929   1.082       .  S
C925        C926   1.400       .  A
C925        C971   1.465       .  S
C926        C927   1.400       .  A
C926        H930   1.085       .  S
C927        C928   1.401       .  A
C927        C972   1.466       .  S
C928        H931   1.084       .  S
C932        C933   1.409       .  A
C932        C937   1.408       .  A
C932        C993   1.485       .  S
C933        C934   1.401       .  A
C933        H938   1.082       .  S
C934        C935   1.399       .  A
C934        C961   1.465       .  S
C935        C936   1.399       .  A
C935        H939   1.085       .  S
C936        C937   1.402       .  A
C936        C960   1.466       .  S
C937        H940   1.084       .  S
N941        N942   1.320       .  A
N941       N1286   1.316   1_545  A
N942       C1288   1.350   1_545  A
N943       N1284   1.316       .  A
N943        N944   1.320       .  A
N943       Mn959   2.200       .  S
N944       C1289   1.351       .  A
N945       N1282   1.316   1_545  A
N945        N946   1.320       .  A
N945       Mn970   2.199       .  S
N946        C950   1.351   1_545  A
N947       N1280   1.316       .  A
N947        N948   1.320       .  A
N948        C949   1.351       .  A
C949       C1248   1.462       .  S
C949       N1281   1.350       .  A
C950       N1283   1.352       .  A
N951        N957   1.316       .  A
N951        N952   1.320       .  A
N952        C960   1.351       .  A
N953        N954   1.320       .  A
N953        N955   1.316       .  A
N954        C961   1.350       .  A
N955        N956   1.321       .  A
N956        C961   1.352       .  A
N957        N958   1.321       .  A
N957       Mn959   2.205       .  S
N958        C960   1.352       .  A
Mn959     Cl1322   2.547       .  S
N962        N963   1.322       .  A
N962        N968   1.316       .  A
N962       Mn970   2.208       .  S
N963        C971   1.353       .  A
N964        N966   1.316       .  A
N964        N965   1.321       .  A
N965        C972   1.351       .  A
N966        N967   1.321       .  A
N967        C972   1.351       .  A
N968        N969   1.319       .  A
N969        C971   1.349       .  A
Mn970      Cl983   2.548       .  S
N973        N974   1.320       .  A
N973       N1318   1.316       .  A
N974        C984   1.351       .  A
N975        N976   1.322       .  A
N975       N1316   1.316   1_545  A
N975       Mn982   2.208       .  S
N976        C985   1.352       .  A
N977       N1314   1.316       .  A
N977        N978   1.320       .  A
N977       Mn981   2.199       .  S
N978       C1324   1.350       .  A
N979       N1312   1.316   1_545  A
N979        N980   1.321       .  A
N980       C1323   1.352       .  A
Cl983     Mn1298   2.548   1_545  S
C984       N1319   1.351       .  A
C985       C1257   1.465       .  S
C985       N1317   1.350   1_545  A
C986        C991   1.379       .  A
C986        C987   1.404       .  A
C986        O992   1.318       .  A
C987        C988   1.403       .  A
C987        H998   1.082       .  S
C988        C997   1.361       .  A
C988        C989   1.379       .  A
C989        O995   1.318       .  A
C990        H999   1.082       .  S
C991        C994   1.360       .  A
O992        C993   1.333       .  A
C993        C994   1.396       .  A
O995        C996   1.332       .  A
C996        C997   1.396       .  A
C997       H1001   1.081       .  S
C1002      C1346   1.378       .  A
C1002      C1003   1.403   1_545  A
C1002      O1008   1.318       .  A
C1003      C1004   1.403       .  A
C1003      H1014   1.082       .  S
C1004      C1013   1.360       .  A
C1004      C1344   1.378   1_565  A
C1005      C1343   1.378       .  A
C1005      C1006   1.402       .  A
C1005      O1011   1.317       .  A
C1006      C1007   1.402       .  A
C1006      H1015   1.082       .  S
C1007      C1341   1.378       .  A
C1007      C1010   1.359       .  A
O1008      C1348   1.333       .  A
C1009      C1010   1.396       .  A
C1009      O1347   1.332       .  A
C1010      H1016   1.081       .  S
O1011      C1012   1.332       .  A
C1012      C1352   1.396       .  A
C1013      C1351   1.396       .  A
C1013      H1017   1.081       .  S
C1018      C1019   1.408       .  A
C1018      C1023   1.409       .  A
C1018      C1125   1.486       .  S
C1019      H1024   1.084       .  S
C1020      C1021   1.398       .  A
C1020      C1063   1.463       .  S
C1021      C1022   1.398       .  A
C1021      H1025   1.085       .  S
C1023      H1026   1.081       .  S
C1027      C1028   1.408       .  A
C1027      C1032   1.409       .  A
C1027      C1122   1.486       .  S
C1028      C1029   1.402       .  A
C1028      H1033   1.084       .  S
C1029      C1030   1.400       .  A
C1029      C1097   1.465       .  S
C1030      C1031   1.399       .  A
C1030      H1034   1.084       .  S
C1031      C1032   1.401       .  A
C1032      H1035   1.081       .  S
C1036      C1037   1.409       .  A
C1036      C1041   1.407       .  A
C1036      C1109   1.485       .  S
C1037      C1038   1.401       .  A
C1037      H1042   1.082       .  S
C1038      C1039   1.399       .  A
C1038      C1084   1.465       .  S
C1039      C1040   1.399       .  A
C1039      H1043   1.085       .  S
C1040      C1041   1.402       .  A
C1040      C1085   1.466       .  S
C1041      H1044   1.084       .  S
C1045      C1046   1.408       .  A
C1045      C1050   1.407       .  A
C1045      C1106   1.484       .  S
C1046      C1047   1.401       .  A
C1046      H1051   1.082       .  S
C1047      C1048   1.399       .  A
C1047      C1074   1.465       .  S
C1048      C1049   1.399       .  A
C1048      H1052   1.085       .  S
C1049      C1050   1.401       .  A
C1049      C1073   1.466       .  S
C1050      H1053   1.084       .  S
N1054      N1055   1.320       .  A
N1054     Mn1309   2.199   1_554  S
N1056      N1057   1.321       .  A
N1056     Mn1072   2.205       .  S
N1058      N1059   1.320       .  A
N1058     Mn1083   2.201       .  S
N1059      C1063   1.351       .  A
N1060      N1061   1.322       .  A
N1060     Mn1298   2.208   1_554  S
N1061      C1062   1.352       .  A
N1064      N1070   1.316       .  A
N1064      N1065   1.321       .  A
N1065      C1073   1.351       .  A
N1066      N1067   1.319       .  A
N1066      N1068   1.316       .  A
N1066     Mn1298   2.196   1_554  S
N1067      C1074   1.350       .  A
N1068      N1069   1.322       .  A
N1069      C1074   1.353       .  A
N1070      N1071   1.321       .  A
N1070     Mn1072   2.202       .  S
N1071      C1073   1.352       .  A
Mn1072     N1173   2.208       .  S
Mn1072     N1179   2.196       .  S
N1075      N1076   1.321       .  A
N1075      N1081   1.316       .  A
N1075     Mn1083   2.204       .  S
N1076      C1084   1.352       .  A
N1077      N1079   1.316       .  A
N1077      N1078   1.321       .  A
N1078      C1085   1.352       .  A
N1079      N1080   1.320       .  A
N1079     Mn1309   2.201   1_554  S
N1080      C1085   1.351       .  A
N1081      N1082   1.320       .  A
N1082      C1084   1.350       .  A
Mn1083     N1167   2.199       .  S
Mn1083     N1192   2.201       .  S
Mn1083    Cl1096   2.547       .  S
N1086      N1087   1.320       .  A
N1086     Mn1320   2.199   1_554  S
N1087      C1097   1.351   1_565  A
N1088      N1089   1.320       .  A
N1088     Mn1095   2.202       .  S
N1089      C1098   1.351       .  A
N1090      N1091   1.320       .  A
N1090     Mn1094   2.199       .  S
N1092      N1093   1.320       .  A
N1092     Mn1321   2.199   1_554  S
Mn1094     N1199   2.199       .  S
Mn1095     N1205   2.199       .  S
C1099      C1104   1.379       .  A
C1099      C1100   1.403       .  A
C1099      O1105   1.318       .  A
C1100      C1101   1.402       .  A
C1100      H1111   1.082       .  S
C1101      C1110   1.360       .  A
C1101      C1102   1.379       .  A
C1102      O1108   1.318       .  A
C1103      H1112   1.082       .  S
C1104      C1107   1.361       .  A
O1105      C1106   1.332       .  A
C1106      C1107   1.396       .  A
O1108      C1109   1.333       .  A
C1109      C1110   1.396       .  A
C1110      H1114   1.081       .  S
C1115      C1116   1.402       .  A
C1115      O1121   1.317       .  A
C1116      C1117   1.402       .  A
C1116      H1127   1.082       .  S
C1117      C1126   1.359       .  A
C1118      C1119   1.403       .  A
C1118      O1124   1.318       .  A
C1119      C1120   1.403       .  A
C1119      H1128   1.082       .  S
C1120      C1123   1.360       .  A
C1122      C1123   1.396       .  A
C1123      H1129   1.081       .  S
O1124      C1125   1.333   1_545  A
C1126      H1130   1.081       .  S
C1131      C1132   1.408       .  A
C1131      C1136   1.409       .  A
C1131      C1238   1.486       .  S
C1132      H1137   1.084       .  S
C1133      C1134   1.399       .  A
C1133      C1176   1.463       .  S
C1134      C1135   1.398       .  A
C1134      H1138   1.085       .  S
C1136      H1139   1.081       .  S
C1140      C1141   1.408       .  A
C1140      C1145   1.409       .  A
C1140      C1235   1.486       .  S
C1141      C1142   1.402       .  A
C1141      H1146   1.084       .  S
C1142      C1143   1.400       .  A
C1142      C1210   1.465       .  S
C1143      C1144   1.399       .  A
C1143      H1147   1.084       .  S
C1144      C1145   1.401       .  A
C1145      H1148   1.081       .  S
C1149      C1150   1.409       .  A
C1149      C1154   1.407       .  A
C1149      C1222   1.485       .  S
C1150      C1151   1.401       .  A
C1150      H1155   1.082       .  S
C1151      C1152   1.399       .  A
C1151      C1197   1.465       .  S
C1152      C1153   1.399       .  A
C1152      H1156   1.085       .  S
C1153      C1154   1.402       .  A
C1153      C1198   1.466       .  S
C1154      H1157   1.084       .  S
C1158      C1159   1.408       .  A
C1158      C1163   1.407       .  A
C1158      C1219   1.484       .  S
C1159      C1160   1.401       .  A
C1159      H1164   1.082       .  S
C1160      C1161   1.399       .  A
C1160      C1187   1.465       .  S
C1161      C1162   1.399       .  A
C1161      H1165   1.085       .  S
C1162      C1163   1.401       .  A
C1162      C1186   1.466       .  S
C1163      H1166   1.084       .  S
N1167      N1168   1.320       .  A
N1169      N1170   1.321       .  A
N1169     Mn1185   2.205       .  S
N1171      N1172   1.320       .  A
N1171     Mn1196   2.201       .  S
N1172      C1176   1.351       .  A
N1173      N1174   1.322       .  A
N1174      C1175   1.352       .  A
N1177      N1183   1.316       .  A
N1177      N1178   1.321       .  A
N1178      C1186   1.351       .  A
N1179      N1180   1.319       .  A
N1179      N1181   1.316       .  A
N1180      C1187   1.350       .  A
N1181      N1182   1.322       .  A
N1182      C1187   1.353       .  A
N1183      N1184   1.321       .  A
N1183     Mn1185   2.202       .  S
N1184      C1186   1.352       .  A
Mn1185     N1286   2.208       .  S
Mn1185     N1292   2.196       .  S
N1188      N1189   1.321       .  A
N1188      N1194   1.316       .  A
N1188     Mn1196   2.204       .  S
N1189      C1197   1.352       .  A
N1190      N1192   1.316       .  A
N1190      N1191   1.321       .  A
N1191      C1198   1.352       .  A
N1192      N1193   1.320       .  A
N1193      C1198   1.351       .  A
N1194      N1195   1.320       .  A
N1195      C1197   1.350       .  A
Mn1196     N1280   2.199       .  S
Mn1196     N1305   2.201       .  S
Mn1196    Cl1209   2.547       .  S
N1199      N1200   1.320       .  A
N1200      C1210   1.351   1_565  A
N1201      N1202   1.320       .  A
N1201     Mn1208   2.202       .  S
N1202      C1211   1.351       .  A
N1203      N1204   1.320       .  A
N1203     Mn1207   2.199       .  S
N1205      N1206   1.320       .  A
Mn1207     N1312   2.199       .  S
Mn1208     N1318   2.199       .  S
C1212      C1217   1.379       .  A
C1212      C1213   1.403       .  A
C1212      O1218   1.318       .  A
C1213      C1214   1.402       .  A
C1213      H1224   1.082       .  S
C1214      C1223   1.360       .  A
C1214      C1215   1.379       .  A
C1215      O1221   1.318       .  A
C1216      H1225   1.082       .  S
C1217      C1220   1.361       .  A
O1218      C1219   1.332       .  A
C1219      C1220   1.396       .  A
O1221      C1222   1.333       .  A
C1222      C1223   1.396       .  A
C1223      H1227   1.081       .  S
C1228      C1229   1.402       .  A
C1228      O1234   1.317       .  A
C1229      C1230   1.402       .  A
C1229      H1240   1.082       .  S
C1230      C1239   1.359       .  A
C1231      C1232   1.403       .  A
C1231      O1237   1.318       .  A
C1232      C1233   1.403       .  A
C1232      H1241   1.082       .  S
C1233      C1236   1.360       .  A
C1235      C1236   1.396       .  A
C1236      H1242   1.081       .  S
O1237      C1238   1.333   1_545  A
C1239      H1243   1.081       .  S
C1244      C1245   1.408       .  A
C1244      C1249   1.409       .  A
C1244      C1351   1.486       .  S
C1245      H1250   1.084       .  S
C1246      C1247   1.398       .  A
C1246      C1289   1.463       .  S
C1247      C1248   1.398       .  A
C1247      H1251   1.085       .  S
C1249      H1252   1.081       .  S
C1253      C1254   1.408       .  A
C1253      C1258   1.409       .  A
C1253      C1348   1.486       .  S
C1254      C1255   1.402       .  A
C1254      H1259   1.084       .  S
C1255      C1256   1.400       .  A
C1255      C1323   1.465       .  S
C1256      C1257   1.399       .  A
C1256      H1260   1.084       .  S
C1257      C1258   1.401       .  A
C1258      H1261   1.081       .  S
C1262      C1263   1.409       .  A
C1262      C1267   1.407       .  A
C1262      C1335   1.485       .  S
C1263      C1264   1.401       .  A
C1263      H1268   1.082       .  S
C1264      C1265   1.399       .  A
C1264      C1310   1.465       .  S
C1265      C1266   1.399       .  A
C1265      H1269   1.085       .  S
C1266      C1267   1.402       .  A
C1266      C1311   1.466       .  S
C1267      H1270   1.084       .  S
C1271      C1272   1.408       .  A
C1271      C1276   1.407       .  A
C1271      C1332   1.484       .  S
C1272      C1273   1.401       .  A
C1272      H1277   1.082       .  S
C1273      C1274   1.399       .  A
C1273      C1300   1.465       .  S
C1274      C1275   1.399       .  A
C1274      H1278   1.085       .  S
C1275      C1276   1.401       .  A
C1275      C1299   1.466       .  S
C1276      H1279   1.084       .  S
N1280      N1281   1.320       .  A
N1282      N1283   1.321       .  A
N1282     Mn1298   2.205       .  S
N1284      N1285   1.320       .  A
N1284     Mn1309   2.201       .  S
N1285      C1289   1.351       .  A
N1286      N1287   1.322       .  A
N1287      C1288   1.352       .  A
N1290      N1296   1.316       .  A
N1290      N1291   1.321       .  A
N1291      C1299   1.351       .  A
N1292      N1293   1.319       .  A
N1292      N1294   1.316       .  A
N1293      C1300   1.350       .  A
N1294      N1295   1.322       .  A
N1295      C1300   1.353       .  A
N1296      N1297   1.321       .  A
N1296     Mn1298   2.202       .  S
N1297      C1299   1.352       .  A
N1301      N1302   1.321       .  A
N1301      N1307   1.316       .  A
N1301     Mn1309   2.204       .  S
N1302      C1310   1.352       .  A
N1303      N1305   1.316       .  A
N1303      N1304   1.321       .  A
N1304      C1311   1.352       .  A
N1305      N1306   1.320       .  A
N1306      C1311   1.351       .  A
N1307      N1308   1.320       .  A
N1308      C1310   1.350       .  A
Mn1309    Cl1322   2.547       .  S
N1312      N1313   1.320       .  A
N1313      C1323   1.351   1_565  A
N1314      N1315   1.320       .  A
N1314     Mn1321   2.201       .  S
N1315      C1324   1.351       .  A
N1316      N1317   1.320       .  A
N1316     Mn1320   2.199       .  S
N1318      N1319   1.320       .  A
C1325      C1330   1.379       .  A
C1325      C1326   1.403       .  A
C1325      O1331   1.318       .  A
C1326      C1327   1.402       .  A
C1326      H1337   1.082       .  S
C1327      C1336   1.360       .  A
C1327      C1328   1.379       .  A
C1328      O1334   1.318       .  A
C1329      H1338   1.082       .  S
C1330      C1333   1.361       .  A
O1331      C1332   1.332       .  A
C1332      C1333   1.396       .  A
O1334      C1335   1.333       .  A
C1335      C1336   1.396       .  A
C1336      H1340   1.081       .  S
C1341      C1342   1.402       .  A
C1341      O1347   1.317       .  A
C1342      C1343   1.402       .  A
C1342      H1353   1.082       .  S
C1343      C1352   1.359       .  A
C1344      C1345   1.403       .  A
C1344      O1350   1.318       .  A
C1345      C1346   1.403       .  A
C1345      H1354   1.082       .  S
C1346      C1349   1.360       .  A
C1348      C1349   1.396       .  A
C1349      H1355   1.081       .  S
O1350      C1351   1.333   1_545  A
C1352      H1356   1.081       .  S
