geometry optimzed in LAMMPS
_audit_creation_date              2020-11-30 
_audit_creation_method            'lammps2cif' 
_symmetry_space_group_name_H-M    'P1' 
_symmetry_Int_Tables_number       1 
_symmetry_cell_setting            triclinic 
loop_ 
_symmetry_equiv_pos_as_xyz 
  x,y,z 
_cell_length_a                    35.20394127 
_cell_length_b                    30.08993501822425 
_cell_length_c                    42.557187916649944 
_cell_angle_alpha                 89.64039127198157 
_cell_angle_beta                  90.52007852964192 
_cell_angle_gamma                 89.6908010145298 
loop_ 
_atom_site_label 
_atom_site_type_symbol 
_atom_site_fract_x 
_atom_site_fract_y 
_atom_site_fract_z 
_atom_site_charge 
O1          O  0.06391814  0.00064648  0.47494948    -0.70000
O2          O  0.45609890  0.99888521  0.46796203    -0.70200
O3          O  0.01001705  0.06455569  0.46798663    -0.70100
O4          O  0.50668480  0.93209186  0.47099633    -0.70100
O5          O  0.99755662  0.94633683  0.04365104    -0.70100
O6          O  0.49332910  0.06005597  0.03851892    -0.70100
O7          O  0.44052831  0.99574405  0.04121428    -0.70000
O8          O  0.05045570  0.01051031  0.03571834    -0.70200
V9          V  0.01027795  0.00116561  0.46865009     1.35200
V10         V  0.49440633  0.99622774  0.04090736     1.35200
C11         C  0.06788172  0.00295287  0.01042155     0.79200
C12         C  0.42249809  0.99611087  0.01544155     0.79300
C13         C  0.50721419  0.07881969  0.50096649     0.79100
C14         C  0.48989151  0.90926830  0.02040177     0.79100
O15         O  0.05332767  0.01943384  0.28440060    -0.70000
O16         O  0.44366614  0.01301714  0.27529658    -0.70200
O17         O  0.99983521  0.95516079  0.28650762    -0.70100
O18         O  0.50181820  0.06921227  0.27937308    -0.70100
O19         O  0.00006048  0.07080282  0.22358199    -0.70100
O20         O  0.50167549  0.93557403  0.23731467    -0.70100
O21         O  0.45264178  0.00210478  0.22546042    -0.70000
O22         O  0.05879816  0.01373173  0.23378132    -0.70200
V23         V  0.99941655  0.01739227  0.27898751     1.35200
V24         V  0.50515818  0.99936323  0.23370690     1.35200
C25         C  0.07435365  0.01786861  0.26039882     0.79200
C26         C  0.43028293  0.00984849  0.24762605     0.79300
C27         C  0.49264321  0.91861869  0.26363602     0.79100
C28         C  0.50370456  0.08753509  0.25269455     0.79100
O29         O  0.26092338  0.05477185  0.47525295    -0.70000
O30         O  0.26269749  0.92732297  0.47483018    -0.70200
O31         O  0.20775223  0.99069490  0.46851483    -0.70100
O32         O  0.31417587  0.99174571  0.48065279    -0.70100
O33         O  0.29991577  0.99108614  0.01385381    -0.70100
O34         O  0.19177314  0.99501959  0.01205130    -0.70100
O35         O  0.24509637  0.92944034  0.01640898    -0.70000
O36         O  0.24828415  0.05627035  0.00960830    -0.70200
V37         V  0.26098393  0.99103793  0.47576841     1.35200
V38         V  0.24602995  0.99278439  0.01201124     1.35200
C39         C  0.24726351  0.07541684  0.98301752     0.79200
C40         C  0.24946822  0.90520227  0.99244503     0.79300
C41         C  0.17350760  0.99029767  0.98649985     0.79100
C42         C  0.31847564  0.99129013  0.98854764     0.79100
O43         O  0.25791569  0.95849926  0.22755623    -0.70000
O44         O  0.25482715  0.08374070  0.21699166    -0.70200
O45         O  0.30990536  0.02314575  0.22874483    -0.70100
O46         O  0.20218151  0.01904785  0.21772399    -0.70100
O47         O  0.19598698  0.02620454  0.26817866    -0.70100
O48         O  0.30202162  0.03213591  0.27891782    -0.70100
O49         O  0.24801119  0.09258464  0.26724847    -0.70000
O50         O  0.25229289  0.96554692  0.27803889    -0.70200
V51         V  0.25599411  0.02134064  0.22372386     1.35200
V52         V  0.24940137  0.02897431  0.27208157     1.35200
C53         C  0.25716547  0.94053516  0.25441266     0.79200
C54         C  0.25205684  0.10959837  0.24005671     0.79300
C55         C  0.32400614  0.02785458  0.25607983     0.79100
C56         C  0.18080138  0.02166505  0.24145580     0.79100
N57         N  0.45675743  0.72483533  0.47296346    -0.34800
N58         N  0.44495067  0.62782572  0.46866552    -0.55400
N59         N  0.43029447  0.63074569  0.04187012    -0.34800
N60         N  0.43917510  0.72786490  0.03830565    -0.55400
C61         C  0.44379594  0.72076659  0.44303207     0.28700
C62         C  0.45444093  0.76847529  0.48066959     0.28700
C63         C  0.42515419  0.58630801  0.03867516     0.28700
C64         C  0.42168101  0.64153607  0.07187728     0.28700
C65         C  0.44996215  0.63837269  0.43802421     0.37400
C66         C  0.44871462  0.58306599  0.47106397     0.37400
C67         C  0.44062813  0.77165987  0.03104335     0.37400
C68         C  0.42588289  0.72472856  0.06792376     0.37400
C69         C  0.43304762  0.76233061  0.43164669    -0.20100
C70         C  0.43978114  0.79237431  0.45535186    -0.20100
C71         C  0.41347986  0.56874031  0.06720503    -0.20100
C72         C  0.41106160  0.60342615  0.08793533    -0.20100
C73         C  0.45693199  0.60010243  0.42099064    -0.21200
C74         C  0.45613798  0.56518493  0.44183711    -0.21200
C75         C  0.42734793  0.79646243  0.05601253    -0.21200
C76         C  0.41828581  0.76683382  0.07937415    -0.21200
C77         C  0.44454232  0.68137262  0.42487338    -0.16500
C78         C  0.45426747  0.78944229  0.00233434    -0.16500
C79         C  0.42178582  0.68475667  0.08530364    -0.16500
C80         C  0.43051153  0.56097868  0.01089215    -0.16500
H81         H  0.42192287  0.77034631  0.40849254     0.16400
H82         H  0.43403378  0.82770960  0.45415564     0.16400
H83         H  0.40598675  0.53476663  0.07252208     0.16400
H84         H  0.40121645  0.60096882  0.11188158     0.16400
H85         H  0.46249086  0.59732419  0.39619650     0.14700
H86         H  0.46023750  0.53060889  0.43593549     0.14700
H87         H  0.42360658  0.83211814  0.05714240     0.14700
H88         H  0.40624720  0.77545742  0.10179769     0.14700
H89         H  0.47016388  0.70003317  0.48622866     0.27900
H90         H  0.44166314  0.65193627  0.02522844     0.27900
N91         N  0.45644102  0.72474791  0.21940397    -0.34800
N92         N  0.46009262  0.72981893  0.28727291    -0.55400
N93         N  0.44581625  0.63248997  0.28984118    -0.34800
N94         N  0.43924552  0.62875086  0.22247752    -0.55400
C95         C  0.46040408  0.76934073  0.22310275     0.28700
C96         C  0.44617178  0.71724594  0.18909260     0.28700
C97         C  0.44095503  0.64427651  0.32019739     0.28700
C98         C  0.43179204  0.59086725  0.28638944     0.28700
C99         C  0.47732663  0.76882757  0.28008200     0.37400
C100        C  0.46954314  0.71996642  0.31747785     0.37400
C101        C  0.44346373  0.63371441  0.19107437     0.37400
C102        C  0.43924351  0.58441263  0.22858352     0.37400
C103        C  0.45208868  0.79041852  0.19479278    -0.20100
C104        C  0.44356207  0.75776434  0.17343566    -0.20100
C105        C  0.42339083  0.60979894  0.33612834    -0.20100
C106        C  0.41825049  0.57592928  0.31503756    -0.20100
C107        C  0.49770310  0.78361112  0.30600473    -0.21200
C108        C  0.49227424  0.75315090  0.32972965    -0.21200
C109        C  0.44545193  0.59218247  0.17714128    -0.21200
C110        C  0.44263826  0.56114504  0.20077294    -0.21200
C111        C  0.47448199  0.79114550  0.25045551    -0.16500
C112        C  0.44348837  0.67485537  0.17443969    -0.16500
C113        C  0.43322153  0.56503769  0.25865098    -0.16500
C114        C  0.45671016  0.68244749  0.33460601    -0.16500
H115        H  0.45308951  0.82563983  0.18961618     0.16400
H116        H  0.43771125  0.76361289  0.14887163     0.16400
H117        H  0.41505325  0.60878665  0.36045994     0.16400
H118        H  0.40565269  0.54407193  0.32034168     0.16400
H119        H  0.51547647  0.81270191  0.30768319     0.14700
H120        H  0.50436048  0.75484586  0.35316395     0.14700
H121        H  0.44844444  0.58472210  0.15246829     0.14700
H122        H  0.44274723  0.52560085  0.19753204     0.14700
H123        H  0.46510015  0.70057286  0.23536935     0.27900
H124        H  0.46244504  0.64942178  0.27373655     0.27900
N125        N  0.29849837  0.71746259  0.44789792    -0.34800
N126        N  0.29666479  0.72050519  0.01379231    -0.55400
N127        N  0.31864145  0.62576806  0.01637129    -0.34800
N128        N  0.30945352  0.62071034  0.44948336    -0.55400
C129        C  0.28324477  0.75792251  0.45436357     0.28700
C130        C  0.28608919  0.70581050  0.41881861     0.28700
C131        C  0.31512718  0.63500481  0.04745327     0.28700
C132        C  0.31866113  0.58075650  0.01308253     0.28700
C133        C  0.29612994  0.76419925  0.00567425     0.37400
C134        C  0.31213243  0.71783952  0.04302182     0.37400
C135        C  0.30998166  0.62766325  0.41791402     0.37400
C136        C  0.32167082  0.57835538  0.45477305     0.37400
C137        C  0.26081002  0.77189809  0.42924551    -0.20100
C138        C  0.26224733  0.73890585  0.40708547    -0.20100
C139        C  0.31362151  0.59515859  0.06405240    -0.20100
C140        C  0.31599361  0.56124228  0.04252393    -0.20100
C141        C  0.31206184  0.78919334  0.02957458    -0.21200
C142        C  0.32211743  0.75990338  0.05317727    -0.21200
C143        C  0.32254085  0.58938152  0.40316968    -0.21200
C144        C  0.32969754  0.55830333  0.42638160    -0.21200
C145        C  0.27982926  0.78141267  0.97743619    -0.16500
C146        C  0.29680588  0.66689373  0.40214672    -0.16500
C147        C  0.32326994  0.55680879  0.98450796    -0.16500
C148        C  0.31520144  0.67826733  0.06129304    -0.16500
H149        H  0.24466883  0.80251411  0.42720604     0.16400
H150        H  0.24688012  0.73904803  0.38502275     0.16400
H151        H  0.31181564  0.59050164  0.08916055     0.16400
H152        H  0.31653501  0.52616351  0.04813582     0.16400
H153        H  0.31643657  0.82473740  0.02995743     0.14700
H154        H  0.33547304  0.76866711  0.07525049     0.14700
H155        H  0.32588249  0.58395611  0.37825924     0.14700
H156        H  0.33956471  0.52472467  0.42263834     0.14700
H157        H  0.31942691  0.70101954  0.46103922     0.27900
H158        H  0.32425305  0.64888105  0.99889016     0.27900
N159        N  0.28647083  0.75218225  0.19794111    -0.34800
N160        N  0.30589949  0.65748612  0.19564918    -0.55400
N161        N  0.29958821  0.65228387  0.26417313    -0.34800
N162        N  0.28767310  0.74911338  0.26665081    -0.55400
C163        C  0.29734181  0.74815986  0.16749648     0.28700
C164        C  0.28550644  0.79612430  0.20500636     0.28700
C165        C  0.31497474  0.61220004  0.25706855     0.28700
C166        C  0.30865310  0.66111274  0.29456160     0.28700
C167        C  0.29614298  0.66588584  0.16529468     0.37400
C168        C  0.30143925  0.61316232  0.20001570     0.37400
C169        C  0.26914249  0.78824250  0.26157213     0.37400
C170        C  0.27997691  0.73639592  0.29656334     0.37400
C171        C  0.30358760  0.79013164  0.15504669    -0.20100
C172        C  0.29619127  0.82029588  0.17859474    -0.20100
C173        C  0.33408371  0.59552785  0.28309997    -0.20100
C174        C  0.33056134  0.62651379  0.30662116    -0.20100
C175        C  0.28474935  0.62713881  0.15076762    -0.21200
C176        C  0.28872538  0.59375081  0.17251013    -0.21200
C177        C  0.24869675  0.79944599  0.28810790    -0.21200
C178        C  0.25628465  0.76727268  0.31041304    -0.21200
C179        C  0.29860197  0.70781250  0.15018163    -0.16500
C180        C  0.27240924  0.81470609  0.23383943    -0.16500
C181        C  0.29537239  0.69823113  0.31188915    -0.16500
C182        C  0.31050452  0.58975892  0.22803410    -0.16500
H183        H  0.31202967  0.79829869  0.13132077     0.16400
H184        H  0.29820296  0.85602737  0.17626724     0.16400
H185        H  0.34920523  0.56435308  0.28482127     0.16400
H186        H  0.34271022  0.62364545  0.32994329     0.16400
H187        H  0.27374277  0.62340094  0.12715686     0.14700
H188        H  0.28221130  0.55937944  0.16844131     0.14700
H189        H  0.22971752  0.82742761  0.29115360     0.14700
H190        H  0.24471136  0.76611566  0.33381138     0.14700
H191        H  0.27602487  0.72678496  0.21199820     0.27900
H192        H  0.28068879  0.67031206  0.25005095     0.27900
N193        N  0.47309631  0.27664262  0.05273288    -0.34800
N194        N  0.46822534  0.26539040  0.48514902    -0.55400
N195        N  0.45416891  0.36248571  0.48168665    -0.34800
N196        N  0.46648262  0.37380641  0.04619450    -0.55400
C197        C  0.48481390  0.23387533  0.04912124     0.28700
C198        C  0.48546093  0.29019881  0.08137022     0.28700
C199        C  0.46217297  0.35265184  0.45132090     0.28700
C200        C  0.46161382  0.40638970  0.48597110     0.28700
C201        C  0.46659787  0.22126595  0.49197698     0.37400
C202        C  0.45690739  0.27015538  0.45475259     0.37400
C203        C  0.46751385  0.37061612  0.07793785     0.37400
C204        C  0.45846062  0.41689195  0.03911379     0.37400
C205        C  0.50490702  0.22031295  0.07564696    -0.20100
C206        C  0.50557128  0.25585287  0.09578256    -0.20100
C207        C  0.47454368  0.39078448  0.43621738    -0.20100
C208        C  0.47412088  0.42452568  0.45794089    -0.20100
C209        C  0.45335019  0.19826603  0.46601987    -0.21200
C210        C  0.44761039  0.22904677  0.44246579    -0.21200
C211        C  0.46017453  0.41186906  0.09098699    -0.21200
C212        C  0.45495909  0.44108420  0.06652960    -0.21200
C213        C  0.47905264  0.20134326  0.52073310    -0.16500
C214        C  0.47804539  0.33212447  0.09539661    -0.16500
C215        C  0.45795668  0.43029473  0.51461168    -0.16500
C216        C  0.45868198  0.31017317  0.43695877    -0.16500
H217        H  0.51817406  0.18828203  0.07992099     0.16400
H218        H  0.51978174  0.25645009  0.11832245     0.16400
H219        H  0.48444271  0.39376241  0.41235279     0.16400
H220        H  0.48352107  0.45816105  0.45377032     0.16400
H221        H  0.44841156  0.16293796  0.46406139     0.14700
H222        H  0.43788886  0.22185983  0.41889257     0.14700
H223        H  0.46000839  0.42076021  0.11555210     0.14700
H224        H  0.45089217  0.47643499  0.06900725     0.14700
H225        H  0.45435471  0.29397434  0.03802983     0.27900
H226        H  0.44195957  0.34100903  0.49793368     0.27900
N227        N  0.47125512  0.27979315  0.30228399    -0.34800
N228        N  0.47655244  0.27439594  0.23424880    -0.55400
N229        N  0.45991734  0.36907055  0.22929247    -0.34800
N230        N  0.44758985  0.37344030  0.29674854    -0.55400
C231        C  0.47270626  0.23519430  0.29726523     0.28700
C232        C  0.45417921  0.28652472  0.33038338     0.28700
C233        C  0.45416376  0.35613025  0.19919900     0.28700
C234        C  0.44430668  0.40989552  0.23228773     0.28700
C235        C  0.49665102  0.23789835  0.24298359     0.37400
C236        C  0.48630747  0.28340436  0.20426585     0.37400
C237        C  0.44967056  0.36933469  0.32847871     0.37400
C238        C  0.44906269  0.41761579  0.29005330     0.37400
C239        C  0.45607515  0.21342429  0.32239151    -0.20100
C240        C  0.44414092  0.24570285  0.34304248    -0.20100
C241        C  0.43388624  0.38887385  0.18309364    -0.20100
C242        C  0.42821331  0.42319994  0.20391287    -0.20100
C243        C  0.52040810  0.22497575  0.21883436    -0.21200
C244        C  0.51304972  0.25313672  0.19400910    -0.21200
C245        C  0.45131971  0.41124198  0.34188550    -0.21200
C246        C  0.45142929  0.44165364  0.31760366    -0.21200
C247        C  0.49004508  0.21396963  0.27112026    -0.16500
C248        C  0.44936707  0.32840538  0.34549123    -0.16500
C249        C  0.44688124  0.43642184  0.25939382    -0.16500
C250        C  0.46978064  0.31727586  0.18569813    -0.16500
H251        H  0.45237834  0.17799032  0.32543305     0.16400
H252        H  0.42935952  0.23970795  0.36478632     0.16400
H253        H  0.42467695  0.38846256  0.15879091     0.16400
H254        H  0.41347870  0.45411077  0.19891044     0.16400
H255        H  0.54071087  0.19786182  0.21885846     0.14700
H256        H  0.52659411  0.25216375  0.17138271     0.14700
H257        H  0.45277030  0.41935622  0.36655418     0.14700
H258        H  0.45273246  0.47737463  0.32004008     0.14700
H259        H  0.48467297  0.30393531  0.28882000     0.27900
H260        H  0.47751372  0.35359104  0.24585894     0.27900
N261        N  0.28411214  0.26627195  0.02863481    -0.34800
N262        N  0.30471410  0.26505272  0.45741774    -0.55400
N263        N  0.31427033  0.36184522  0.46035304    -0.34800
N264        N  0.29909379  0.36324873  0.02859274    -0.55400
C265        C  0.28471161  0.22146410  0.02427733     0.28700
C266        C  0.28767462  0.27402853  0.05999023     0.28700
C267        C  0.32867326  0.35309209  0.43164550     0.28700
C268        C  0.32405424  0.40408566  0.46785032     0.28700
C269        C  0.29187346  0.22274654  0.45960149     0.37400
C270        C  0.30812646  0.27415151  0.42634567     0.37400
C271        C  0.28662771  0.35728349  0.05842592     0.37400
C272        C  0.29467660  0.40719494  0.02176435     0.37400
C273        C  0.28815521  0.20076893  0.05344979    -0.20100
C274        C  0.29031120  0.23360101  0.07567854    -0.20100
C275        C  0.34871312  0.38964090  0.42111108    -0.20100
C276        C  0.34545040  0.42187975  0.44363958    -0.20100
C277        C  0.28746161  0.20494227  0.42983803    -0.21200
C278        C  0.29800717  0.23719363  0.40889963    -0.21200
C279        C  0.27444422  0.39751619  0.07040855    -0.21200
C280        C  0.27982130  0.42903991  0.04748152    -0.21200
C281        C  0.28105867  0.19836004  0.99506652    -0.16500
C282        C  0.28613480  0.31619144  0.07521925    -0.16500
C283        C  0.30535408  0.42832233  0.99320154    -0.16500
C284        C  0.32091711  0.31490219  0.41337060    -0.16500
H285        H  0.28889171  0.16557510  0.05866878     0.16400
H286        H  0.29291266  0.22790163  0.10068897     0.16400
H287        H  0.36319654  0.39336900  0.39895523     0.16400
H288        H  0.35742186  0.45454753  0.44157709     0.16400
H289        H  0.27792565  0.17197223  0.42367797     0.14700
H290        H  0.29846671  0.23324144  0.38371179     0.14700
H291        H  0.26158748  0.40337734  0.09291739     0.14700
H292        H  0.27281012  0.46392456  0.04947752     0.14700
H293        H  0.27793426  0.29020497  0.01158011     0.27900
H294        H  0.29425470  0.34271813  0.47188280     0.27900
N295        N  0.28552211  0.29740342  0.21310482    -0.34800
N296        N  0.30453759  0.39374882  0.21084549    -0.55400
N297        N  0.30607877  0.39554341  0.27875711    -0.34800
N298        N  0.29493450  0.29947534  0.28130333    -0.55400
C299        C  0.29697856  0.30264239  0.18293578     0.28700
C300        C  0.28825166  0.25345494  0.22049363     0.28700
C301        C  0.31590415  0.43796687  0.27222379     0.28700
C302        C  0.31594120  0.38718164  0.30905054     0.28700
C303        C  0.29441500  0.38540614  0.18059903     0.37400
C304        C  0.29888278  0.43799455  0.21552923     0.37400
C305        C  0.27761554  0.25978183  0.27764916     0.37400
C306        C  0.29067574  0.31046200  0.31186018     0.37400
C307        C  0.30738241  0.26149458  0.17116744    -0.20100
C308        C  0.30160345  0.23050072  0.19469293    -0.20100
C309        C  0.33240851  0.45676494  0.29868556    -0.20100
C310        C  0.33283128  0.42457359  0.32181551    -0.20100
C311        C  0.28276256  0.42447547  0.16604363    -0.21200
C312        C  0.28472092  0.45729931  0.18826990    -0.21200
C313        C  0.26219540  0.24576925  0.30584746    -0.21200
C314        C  0.27012599  0.27810428  0.32738976    -0.21200
C315        C  0.29651938  0.34335702  0.16559046    -0.16500
C316        C  0.27870123  0.23413790  0.25001641    -0.16500
C317        C  0.30618183  0.34859779  0.32625266    -0.16500
C318        C  0.30696166  0.46102602  0.24399820    -0.16500
H319        H  0.31874203  0.25449252  0.14822348     0.16400
H320        H  0.30759578  0.19528776  0.19314484     0.16400
H321        H  0.34230707  0.49043209  0.30139878     0.16400
H322        H  0.34302976  0.42887577  0.34566139     0.16400
H323        H  0.27244128  0.42873627  0.14227108     0.14700
H324        H  0.27550214  0.49109536  0.18489807     0.14700
H325        H  0.24660140  0.21553316  0.31038407     0.14700
H326        H  0.26099595  0.27830209  0.35156380     0.14700
H327        H  0.27345464  0.32193865  0.22704970     0.27900
H328        H  0.28891220  0.37575749  0.26472611     0.27900
C329        C  0.32521734  0.31756431  0.37848068    -0.14700
C330        C  0.30858322  0.35013068  0.36124821    -0.29800
H331        H  0.33842188  0.28983394  0.36643157     0.14400
H332        H  0.29507521  0.37794970  0.37295572     0.14900
C333        C  0.28127374  0.31630918  0.11056715    -0.14700
C334        C  0.30070632  0.34336838  0.13028334    -0.29800
H335        H  0.26201707  0.29218220  0.12069547     0.14400
H336        H  0.31969287  0.36787118  0.12022771     0.14900
C337        C  0.46249445  0.30574484  0.40183715    -0.14700
C338        C  0.44286066  0.33052726  0.38051972    -0.29800
H339        H  0.98099733  0.29149822  0.38189827     0.14400
H340        H  0.42330707  0.35551639  0.38916404     0.14900
C341        C  0.48343735  0.33742079  0.13015034    -0.14700
C342        C  0.46734648  0.30992866  0.15112607    -0.29800
H343        H  0.99459843  0.38075190  0.12702490     0.14400
H344        H  0.45249454  0.28055875  0.14297570     0.14900
C345        C  0.31725319  0.54036769  0.22577449    -0.14700
C346        C  0.30263072  0.51077103  0.24628824    -0.29800
H347        H  0.33264310  0.52806422  0.20557453     0.14400
H348        H  0.28743005  0.52338703  0.26649994     0.14900
C349        C  0.32978301  0.50720427  0.98580073    -0.14700
C350        C  0.30118392  0.47831535  0.99112517    -0.29800
H351        H  0.35814102  0.49464792  0.98132834     0.14400
H352        H  0.27544393  0.48967200  0.49668862     0.14900
C353        C  0.29129173  0.66537331  0.36684718    -0.19100
C354        C  0.29976049  0.69954469  0.34719094    -0.29800
H355        H  0.28095694  0.63467524  0.35668914     0.14400
H356        H  0.30973016  0.73050833  0.35722466     0.14900
C357        C  0.31907044  0.68134243  0.09659329    -0.14700
C358        C  0.29875935  0.70980416  0.11470197    -0.29800
H359        H  0.33720797  0.65699381  0.10831986     0.14400
H360        H  0.28045016  0.73437595  0.10340965     0.14900
C361        C  0.45215616  0.48528129  0.25453153    -0.14700
C362        C  0.42580073  0.51605688  0.26165234    -0.29800
H363        H  0.97932549  0.50957859  0.23327936     0.14400
H364        H  0.39945722  0.50526126  0.27216793     0.14900
C365        C  0.46082101  0.48032111  0.51521258    -0.14700
C366        C  0.42960043  0.51121852  0.01385308    -0.29800
H367        H  0.97601998  0.50102161  0.52587825     0.14400
H368        H  0.40556703  0.49592341  0.02542931     0.14900
C369        C  0.43674022  0.68522302  0.39043925    -0.14700
C370        C  0.46439278  0.68069546  0.36912391    -0.29800
H371        H  0.40782462  0.69221713  0.38265577     0.14400
H372        H  0.00230690  0.67456876  0.37326706     0.14900
C373        C  0.44494323  0.67242592  0.13942589    -0.14700
C374        C  0.41760531  0.68847252  0.12009239    -0.29800
H375        H  0.97627724  0.71364783  0.12468224     0.14400
H376        H  0.39342259  0.70624474  0.12964012     0.14900
C377        C  0.25459642  0.15832359  0.23460450    -0.14700
C378        C  0.27395293  0.18480770  0.25431888    -0.29800
H379        H  0.24297746  0.17192871  0.21284697     0.14400
H380        H  0.28574038  0.16992544  0.27564748     0.14900
C381        C  0.26421840  0.89183584  0.25801348    -0.14700
C382        C  0.26097495  0.86333606  0.23352855    -0.29800
H383        H  0.27493223  0.88030550  0.28059799     0.14400
H384        H  0.25103710  0.87704375  0.21124327     0.14900
C385        C  0.27613329  0.14831330  0.99675581    -0.14700
C386        C  0.25020366  0.12477907  0.98010799    -0.29800
H387        H  0.29432838  0.12991649  0.01300476     0.14400
H388        H  0.24049645  0.14111171  0.52001960     0.14900
C389        C  0.25513926  0.85614348  0.99623022    -0.14700
C390        C  0.27072906  0.83037343  0.97372136    -0.29800
H391        H  0.25624139  0.83962962  0.52320694     0.14400
H392        H  0.27659540  0.84552414  0.95104778     0.14900
C393        C  0.49886394  0.13638201  0.24910026    -0.14700
C394        C  0.49979442  0.16505196  0.27359584    -0.29800
H395        H  0.49096493  0.14804363  0.22579880     0.14400
H396        H  0.99814869  0.16397741  0.28855456     0.14900
C397        C  0.48808340  0.83862319  0.24655103    -0.14700
C398        C  0.48234760  0.87088330  0.26792843    -0.29800
H399        H  0.01984161  0.85921813  0.22649762     0.14400
H400        H  0.46771931  0.86261759  0.28951622     0.14900
C401        C  0.38971604  0.01483834  0.24051024    -0.14700
C402        C  0.36493749  0.02695566  0.26234754    -0.29800
H403        H  0.38000366  0.00783711  0.21674274     0.14400
H404        H  0.37466862  0.03381869  0.28613803     0.14900
C405        C  0.11607064  0.02070802  0.26338400    -0.14700
C406        C  0.13907596  0.01931691  0.23818623    -0.29800
H407        H  0.12810183  0.02381828  0.28686150     0.14400
H408        H  0.12710179  0.01609614  0.21469777     0.14900
C409        C  0.48573313  0.15175846  0.52279726    -0.14700
C410        C  0.50461808  0.12828967  0.50084204    -0.29800
H411        H  0.47497183  0.13427963  0.54325737     0.14400
H412        H  0.99551867  0.15025414  0.97412972     0.14900
C413        C  0.46406343  0.83810541  0.00029071    -0.14700
C414        C  0.48328561  0.86058531  0.02281369    -0.29800
H415        H  0.45519235  0.85609778  0.97924808     0.14400
H416        H  0.01246162  0.85044637  0.46859286     0.14900
C417        C  0.36028386  0.99256168  0.98862897    -0.14700
C418        C  0.38067360  0.99536852  0.01534175    -0.29800
H419        H  0.38123204  0.99196241  0.53595734     0.14400
H420        H  0.36638518  0.99634117  0.03785921     0.14900
C421        C  0.11011434  0.00112109  0.01069242    -0.14700
C422        C  0.13121779  0.99145444  0.98532304    -0.29800
H423        H  0.12434362  0.00780470  0.03291198     0.14400
H424        H  0.13421400  0.99170477  0.46141143     0.14900
O425        O  0.04829472  0.99693505  0.98568683    -0.70000
O426        O  0.44117848  0.99652289  0.99016395    -0.70200
O427        O  0.99514201  0.06267789  0.98052505    -0.70100
O428        O  0.48991693  0.92874352  0.99399378    -0.70100
O429        O  0.00018372  0.93620544  0.51719506    -0.70100
O430        O  0.50374718  0.05571604  0.52580712    -0.70100
O431        O  0.44933108  0.99494616  0.51861464    -0.70000
O432        O  0.05440012  0.99904951  0.52530398    -0.70200
V433        V  0.99400940  0.99990708  0.98790828     1.35200
V434        V  0.50261234  0.99206661  0.52288132     1.35200
C435        C  0.07731337  0.99886320  0.50265456     0.79200
C436        C  0.43457522  0.99752816  0.49155002     0.79300
C437        C  0.49617492  0.07892229  0.01188545     0.79100
C438        C  0.50049623  0.90876398  0.49524120     0.79100
O439        O  0.04462957  0.00299722  0.78925169    -0.70000
O440        O  0.43557809  0.99664489  0.79197762    -0.70200
O441        O  0.99248780  0.93657497  0.79531240    -0.70100
O442        O  0.48893954  0.05903901  0.78845049    -0.70100
O443        O  0.98563164  0.05287535  0.73279706    -0.70100
O444        O  0.49181115  0.92608690  0.74574272    -0.70100
O445        O  0.43563231  0.98755010  0.74136703    -0.70000
O446        O  0.04463944  0.99472939  0.73861882    -0.70200
V447        V  0.99051008  0.99954493  0.78835165     1.35200
V448        V  0.48959780  0.98966975  0.74264822     1.35200
C449        C  0.06312083  0.00086262  0.76393387     0.79200
C450        C  0.41727674  0.99354152  0.76642438     0.79300
C451        C  0.48925514  0.90770454  0.77253089     0.79100
C452        C  0.48522261  0.07708250  0.76165322     0.79100
O453        O  0.24399018  0.05126013  0.95883254    -0.70000
O454        O  0.25005858  0.92421394  0.96576880    -0.70200
O455        O  0.19232355  0.98490501  0.96159478    -0.70100
O456        O  0.30034973  0.99059957  0.96280559    -0.70100
O457        O  0.30664098  0.99182674  0.53128311    -0.70100
O458        O  0.19937794  0.98900248  0.51902707    -0.70100
O459        O  0.25495507  0.92696703  0.52540084    -0.70000
O460        O  0.25128367  0.05332282  0.52559607    -0.70200
V461        V  0.24647587  0.98780244  0.96319858     1.35200
V462        V  0.25316496  0.99020349  0.52433173     1.35200
C463        C  0.25650474  0.07563785  0.50079267     0.79200
C464        C  0.26050360  0.90555966  0.50038269     0.79300
C465        C  0.18536864  0.99034733  0.49152170     0.79100
C466        C  0.32853024  0.99251735  0.50787963     0.79100
O467        O  0.24222146  0.94559718  0.71990393    -0.70000
O468        O  0.24181214  0.07189416  0.70801609    -0.70200
O469        O  0.29545048  0.00797836  0.71392945    -0.70100
O470        O  0.18732760  0.00841230  0.71389829    -0.70100
O471        O  0.18758435  0.01714226  0.76449461    -0.70100
O472        O  0.29599922  0.01692955  0.76454976    -0.70100
O473        O  0.24275115  0.08089184  0.75857073    -0.70000
O474        O  0.24333000  0.95490305  0.77046503    -0.70200
V475        V  0.24148170  0.00883212  0.71491594     1.35200
V476        V  0.24205078  0.01753275  0.76350625     1.35200
C477        C  0.24493646  0.92891809  0.74726184     0.79200
C478        C  0.24407789  0.09792864  0.73126560     0.79300
C479        C  0.31403345  0.01071103  0.73937294     0.79100
C480        C  0.16892793  0.01149798  0.73919771     0.79100
N481        N  0.44402809  0.72143591  0.97030351    -0.34800
N482        N  0.43634248  0.62434461  0.97401028    -0.55400
N483        N  0.44643001  0.62079195  0.53618019    -0.34800
N484        N  0.45359641  0.71837309  0.54047811    -0.55400
C485        C  0.44927646  0.71055183  0.93976660     0.28700
C486        C  0.45660157  0.76372964  0.97431822     0.28700
C487        C  0.43646057  0.57871421  0.52829234     0.28700
C488        C  0.43544703  0.62766774  0.56624772     0.28700
C489        C  0.43554393  0.62888884  0.94234778     0.37400
C490        C  0.43352892  0.58030180  0.98045481     0.37400
C491        C  0.46570056  0.76106114  0.53800961     0.37400
C492        C  0.45564638  0.70715108  0.57137838     0.37400
C493        C  0.46453480  0.74662474  0.92401320    -0.20100
C494        C  0.46986646  0.77966711  0.94577912    -0.20100
C495        C  0.41901078  0.55859894  0.55365107    -0.20100
C496        C  0.41846469  0.58926148  0.57757396    -0.20100
C497        C  0.43236266  0.58738254  0.92869995    -0.21200
C498        C  0.43108913  0.55676485  0.95265932    -0.21200
C499        C  0.47540858  0.77691629  0.56743585    -0.21200
C500        C  0.46865349  0.74325348  0.58843360    -0.21200
C501        C  0.44012966  0.66934808  0.92543984    -0.16500
C502        C  0.46542580  0.78702411  0.50998892    -0.16500
C503        C  0.44316744  0.66611187  0.58454364    -0.16500
C504        C  0.44315434  0.55795184  0.49887562    -0.16500
H505        H  0.47154171  0.74897027  0.89941010     0.16400
H506        H  0.48166219  0.81203808  0.94077393     0.16400
H507        H  0.40705051  0.52560989  0.55459119     0.16400
H508        H  0.40694163  0.58363051  0.60073584     0.16400
H509        H  0.43238992  0.57938378  0.90412879     0.14700
H510        H  0.42786232  0.52128782  0.94976386     0.14700
H511        H  0.48586402  0.80953437  0.57346463     0.14700
H512        H  0.47334693  0.74575649  0.61336794     0.14700
H513        H  0.42899095  0.70253571  0.98638528     0.27900
H514        H  0.46329588  0.64195116  0.52289778     0.27900
N515        N  0.46732387  0.71458297  0.72169382    -0.34800
N516        N  0.46523177  0.71697286  0.78954510    -0.55400
N517        N  0.44673158  0.62157998  0.78921172    -0.34800
N518        N  0.44522155  0.62018227  0.72150759    -0.55400
C519        C  0.46578329  0.75894584  0.72731992     0.28700
C520        C  0.45551540  0.70821958  0.69169298     0.28700
C521        C  0.44143041  0.63223575  0.81977245     0.28700
C522        C  0.43031498  0.58150027  0.78419213     0.28700
C523        C  0.48347139  0.75562022  0.78344100     0.37400
C524        C  0.47474664  0.70489168  0.81928110     0.37400
C525        C  0.45306047  0.62566170  0.69068095     0.37400
C526        C  0.44186168  0.57591546  0.72670065     0.37400
C527        C  0.45207985  0.78075738  0.70069509    -0.20100
C528        C  0.44564102  0.74877696  0.67828446    -0.20100
C529        C  0.42097371  0.59872337  0.83413299    -0.20100
C530        C  0.41464665  0.56649296  0.81204197    -0.20100
C531        C  0.50510240  0.76778417  0.80931087    -0.21200
C532        C  0.49926906  0.73594080  0.83209880    -0.21200
C533        C  0.45425668  0.58471586  0.67599576    -0.21200
C534        C  0.44673841  0.55324236  0.69871299    -0.21200
C535        C  0.47906680  0.78021099  0.75504245    -0.16500
C536        C  0.45630150  0.66733475  0.67537417    -0.16500
C537        C  0.43175987  0.55655081  0.75597300    -0.16500
C538        C  0.45906063  0.66823024  0.83560392    -0.16500
H539        H  0.44712261  0.81605313  0.69764583     0.16400
H540        H  0.43422335  0.75466960  0.65496812     0.16400
H541        H  0.41127668  0.59723033  0.85795936     0.16400
H542        H  0.40006753  0.53550896  0.81627912     0.16400
H543        H  0.52364800  0.79615519  0.81151255     0.14700
H544        H  0.51206300  0.73554337  0.85529055     0.14700
H545        H  0.45903174  0.57823862  0.65135289     0.14700
H546        H  0.44461670  0.51788677  0.69476317     0.14700
H547        H  0.48026526  0.69046071  0.73611905     0.27900
H548        H  0.46492310  0.63807711  0.77388943     0.27900
N549        N  0.29146131  0.71442852  0.94529503    -0.34800
N550        N  0.30515083  0.72034579  0.51631735    -0.55400
N551        N  0.32213097  0.62449672  0.51742134    -0.34800
N552        N  0.30772902  0.61889835  0.94853985    -0.55400
C553        C  0.27365479  0.75373780  0.95095911     0.28700
C554        C  0.27989803  0.70054405  0.91647461     0.28700
C555        C  0.32017937  0.63262134  0.54865604     0.28700
C556        C  0.32116027  0.57977692  0.51355247     0.28700
C557        C  0.30540100  0.76443692  0.50964832     0.37400
C558        C  0.31870002  0.71567420  0.54602276     0.37400
C559        C  0.30864309  0.62486158  0.91695945     0.37400
C560        C  0.32205939  0.57775667  0.95452947     0.37400
C561        C  0.25033203  0.76457918  0.92561918    -0.20100
C562        C  0.25397509  0.73085823  0.90411865    -0.20100
C563        C  0.31910884  0.59240339  0.56479008    -0.20100
C564        C  0.31971711  0.55927476  0.54276549    -0.20100
C565        C  0.31988438  0.78771466  0.53505374    -0.21200
C566        C  0.32807631  0.75687576  0.55812159    -0.21200
C567        C  0.32372462  0.58736596  0.90288739    -0.21200
C568        C  0.33208818  0.55764182  0.92659787    -0.21200
C569        C  0.29048057  0.78366185  0.48157398    -0.16500
C570        C  0.29319512  0.66209380  0.90057295    -0.16500
C571        C  0.32377720  0.55671867  0.48463692    -0.16500
C572        C  0.32041435  0.67510309  0.56311341    -0.16500
H573        H  0.23222676  0.79357487  0.92300817     0.16400
H574        H  0.23855098  0.72835905  0.88219463     0.16400
H575        H  0.31890974  0.58694814  0.58986781     0.16400
H576        H  0.31979773  0.52402673  0.54790145     0.16400
H577        H  0.32420712  0.82316733  0.53689813     0.14700
H578        H  0.33980466  0.76393665  0.58113538     0.14700
H579        H  0.32781278  0.58151758  0.87812098     0.14700
H580        H  0.34421300  0.52501470  0.92345980     0.14700
H581        H  0.31334281  0.70042550  0.95871319     0.27900
H582        H  0.32706709  0.64808222  0.49999613     0.27900
N583        N  0.27750032  0.74042735  0.69683829    -0.34800
N584        N  0.29974095  0.64624949  0.69497630    -0.55400
N585        N  0.29541879  0.64153125  0.76287875    -0.34800
N586        N  0.28025515  0.73842494  0.76466184    -0.55400
C587        C  0.28925631  0.73686924  0.66672323     0.28700
C588        C  0.27493621  0.78433292  0.70339710     0.28700
C589        C  0.31080874  0.60125366  0.75603891     0.28700
C590        C  0.30495135  0.65123281  0.79305397     0.28700
C591        C  0.29133802  0.65454410  0.66438345     0.37400
C592        C  0.29797516  0.60156975  0.69877807     0.37400
C593        C  0.26130819  0.77747754  0.76022944     0.37400
C594        C  0.27566525  0.72679173  0.79518972     0.37400
C595        C  0.29428342  0.77895033  0.65403268    -0.20100
C596        C  0.28519057  0.80886984  0.67711091    -0.20100
C597        C  0.33009788  0.58516312  0.78214892    -0.20100
C598        C  0.32698687  0.61683576  0.80529250    -0.20100
C599        C  0.28355766  0.61531138  0.64895933    -0.21200
C600        C  0.28834532  0.58177336  0.67052864    -0.21200
C601        C  0.24404254  0.79000439  0.78793417    -0.21200
C602        C  0.25386076  0.75859217  0.81012741    -0.21200
C603        C  0.29265597  0.69681156  0.64973948    -0.16500
C604        C  0.26139525  0.80267693  0.73181577    -0.16500
C605        C  0.29217797  0.68898581  0.81016818    -0.16500
C606        C  0.30701860  0.57847608  0.72697467    -0.16500
H607        H  0.30302837  0.78735211  0.63043474     0.16400
H608        H  0.28601665  0.84467290  0.67469289     0.16400
H609        H  0.34506281  0.55392055  0.78415349     0.16400
H610        H  0.33952074  0.61461254  0.82849622     0.16400
H611        H  0.27465297  0.61136418  0.62478457     0.14700
H612        H  0.28490231  0.54699203  0.66567713     0.14700
H613        H  0.22593222  0.81849076  0.79195746     0.14700
H614        H  0.24514156  0.75885143  0.83433207     0.14700
H615        H  0.26756173  0.71468804  0.71082005     0.27900
H616        H  0.27634097  0.65927421  0.74878116     0.27900
N617        N  0.47120024  0.26841659  0.55356157    -0.34800
N618        N  0.46833322  0.26753229  0.98519397    -0.55400
N619        N  0.45704922  0.36477627  0.97900705    -0.34800
N620        N  0.46421174  0.36538763  0.55000936    -0.55400
C621        C  0.48416535  0.22647648  0.54859926     0.28700
C622        C  0.48081494  0.27955791  0.58340789     0.28700
C623        C  0.46404033  0.35279677  0.94895060     0.28700
C624        C  0.46390242  0.40904271  0.98123907     0.28700
C625        C  0.46514420  0.22409326  0.99353468     0.37400
C626        C  0.45707417  0.27073564  0.95475229     0.37400
C627        C  0.46239245  0.35980063  0.58160857     0.37400
C628        C  0.45567674  0.40870842  0.54422725     0.37400
C629        C  0.50195393  0.21079468  0.57572002    -0.20100
C630        C  0.49994577  0.24425840  0.59755803    -0.20100
C631        C  0.47563574  0.38974096  0.93201984    -0.20100
C632        C  0.47508466  0.42524016  0.95219754    -0.20100
C633        C  0.45127753  0.19989253  0.96835254    -0.21200
C634        C  0.44670387  0.22924495  0.94375400    -0.21200
C635        C  0.45256401  0.39961846  0.59569250    -0.21200
C636        C  0.44832797  0.43035181  0.57218052    -0.21200
C637        C  0.47661667  0.20610646  0.02312337    -0.16500
C638        C  0.47223262  0.32045185  0.59835639    -0.16500
C639        C  0.45889082  0.43549677  0.00840812    -0.16500
C640        C  0.45861610  0.30984129  0.93608304    -0.16500
H641        H  0.51537818  0.17871369  0.57937304     0.16400
H642        H  0.51191665  0.24295198  0.62099126     0.16400
H643        H  0.48411687  0.39099880  0.90768968     0.16400
H644        H  0.48257343  0.45900082  0.94608665     0.16400
H645        H  0.44499772  0.16478031  0.96755925     0.14700
H646        H  0.43677262  0.22087239  0.92045033     0.14700
H647        H  0.44978597  0.40660862  0.62041079     0.14700
H648        H  0.44148790  0.46500762  0.57559116     0.14700
H649        H  0.45369469  0.28683354  0.53854686     0.27900
H650        H  0.44467753  0.34468865  0.99603528     0.27900
N651        N  0.45650836  0.27260645  0.80477526    -0.34800
N652        N  0.46304331  0.26295392  0.73761479    -0.55400
N653        N  0.44938767  0.35799931  0.73009923    -0.34800
N654        N  0.43586636  0.36706867  0.79689978    -0.55400
C655        C  0.45684078  0.22771818  0.80158990     0.28700
C656        C  0.44008447  0.28192448  0.83264823     0.28700
C657        C  0.44345267  0.34342786  0.70043007     0.28700
C658        C  0.43482246  0.39955771  0.73173344     0.28700
C659        C  0.48101088  0.22549441  0.74741745     0.37400
C660        C  0.47324082  0.26948613  0.70743414     0.37400
C661        C  0.43867426  0.36459903  0.82862731     0.37400
C662        C  0.43932949  0.41063598  0.78905133     0.37400
C663        C  0.44006097  0.20837087  0.82760693    -0.20100
C664        C  0.42918348  0.24256409  0.84701760    -0.20100
C665        C  0.42379184  0.37573135  0.68337778    -0.20100
C666        C  0.41913848  0.41167356  0.70297982    -0.20100
C667        C  0.50372542  0.20913177  0.72361101    -0.21200
C668        C  0.49805672  0.23646585  0.69803355    -0.21200
C669        C  0.44249537  0.40696829  0.84093565    -0.21200
C670        C  0.44336326  0.43599307  0.81587590    -0.21200
C671        C  0.47358049  0.20409733  0.77642151    -0.16500
C672        C  0.43789779  0.32466802  0.84656921    -0.16500
C673        C  0.43809670  0.42764683  0.75793779    -0.16500
C674        C  0.45867255  0.30360677  0.68796032    -0.16500
H675        H  0.43590921  0.17331193  0.83213300     0.16400
H676        H  0.41492352  0.23888501  0.86926036     0.16400
H677        H  0.41413974  0.37377465  0.65925793     0.16400
H678        H  0.40543196  0.44291310  0.69695987     0.16400
H679        H  0.52212342  0.18022544  0.72432284     0.14700
H680        H  0.51116773  0.23283507  0.67534458     0.14700
H681        H  0.44510356  0.41620427  0.86534878     0.14700
H682        H  0.44668037  0.47162870  0.81730844     0.14700
H683        H  0.47071317  0.29523335  0.79058678     0.27900
H684        H  0.46669807  0.34304181  0.74710482     0.27900
N685        N  0.28631171  0.26352955  0.52395462    -0.34800
N686        N  0.29400524  0.26340627  0.96067973    -0.55400
N687        N  0.30399616  0.36095334  0.96004982    -0.34800
N688        N  0.30208760  0.36039562  0.52737302    -0.55400
C689        C  0.28912221  0.21923976  0.51806356     0.28700
C690        C  0.29036182  0.26917121  0.55546696     0.28700
C691        C  0.31488301  0.35082683  0.93042261     0.28700
C692        C  0.31478061  0.40347925  0.96593459     0.28700
C693        C  0.28592052  0.21968460  0.96525536     0.37400
C694        C  0.29806346  0.26973536  0.92926512     0.37400
C695        C  0.28772120  0.35222102  0.55632853     0.37400
C696        C  0.29718477  0.40459583  0.52152129     0.37400
C697        C  0.29485008  0.19662824  0.54620763    -0.20100
C698        C  0.29540348  0.22789741  0.56966835    -0.20100
C699        C  0.33348421  0.38706717  0.91764956    -0.20100
C700        C  0.33295738  0.42025575  0.93973440    -0.20100
C701        C  0.28620444  0.19809771  0.93654619    -0.21200
C702        C  0.29320053  0.22959960  0.91394202    -0.21200
C703        C  0.27380745  0.39133710  0.56884148    -0.21200
C704        C  0.27994049  0.42442918  0.54703563    -0.21200
C705        C  0.28653012  0.19875096  0.48798753    -0.16500
C706        C  0.28774810  0.31016797  0.57196532    -0.16500
C707        C  0.31009927  0.42760403  0.49426120    -0.16500
C708        C  0.30753541  0.31050759  0.91402504    -0.16500
H709        H  0.29898510  0.16128697  0.54966016     0.16400
H710        H  0.29934144  0.22078197  0.59440395     0.16400
H711        H  0.34657784  0.38929607  0.89485267     0.16400
H712        H  0.34514193  0.45266673  0.93666190     0.16400
H713        H  0.28301270  0.16306087  0.93194632     0.14700
H714        H  0.29531151  0.22300113  0.88907353     0.14700
H715        H  0.25951602  0.39534408  0.59095792     0.14700
H716        H  0.27239838  0.45908031  0.54974787     0.14700
H717        H  0.27873548  0.28805824  0.50780859     0.27900
H718        H  0.28609516  0.34188110  0.97401273     0.27900
N719        N  0.28389682  0.28648266  0.70963807    -0.34800
N720        N  0.30452392  0.38265729  0.70859151    -0.55400
N721        N  0.30053492  0.38350397  0.77662102    -0.34800
N722        N  0.28740541  0.28762950  0.77837140    -0.55400
C723        C  0.29705517  0.29203283  0.67995257     0.28700
C724        C  0.28533455  0.24233360  0.71667864     0.28700
C725        C  0.31199412  0.42559356  0.77061919     0.28700
C726        C  0.30767043  0.37496226  0.80741824     0.28700
C727        C  0.29507434  0.37474978  0.67815283     0.37400
C728        C  0.29832777  0.42675487  0.71347982     0.37400
C729        C  0.27082664  0.24757872  0.77359720     0.37400
C730        C  0.28204090  0.29792402  0.80905089     0.37400
C731        C  0.30757872  0.25094213  0.66820276    -0.20100
C732        C  0.30009146  0.21967158  0.69123038    -0.20100
C733        C  0.32708397  0.44385382  0.79777631    -0.20100
C734        C  0.32452390  0.41190537  0.82091830    -0.20100
C735        C  0.28335416  0.41388962  0.66373960    -0.21200
C736        C  0.28453024  0.44633964  0.68621773    -0.21200
C737        C  0.25472275  0.23270698  0.80136110    -0.21200
C738        C  0.26182773  0.26445037  0.82369986    -0.21200
C739        C  0.29750753  0.33299443  0.66288110    -0.16500
C740        C  0.27299912  0.22250409  0.74538879    -0.16500
C741        C  0.29581382  0.33667569  0.82424515    -0.16500
C742        C  0.30509003  0.44930091  0.74230126    -0.16500
H743        H  0.31980719  0.24413073  0.64552725     0.16400
H744        H  0.30568338  0.18439193  0.68952790     0.16400
H745        H  0.33789039  0.47711770  0.80086893     0.16400
H746        H  0.33291500  0.41618508  0.84516192     0.16400
H747        H  0.27328136  0.41837510  0.63993161     0.14700
H748        H  0.27465244  0.47993767  0.68310700     0.14700
H749        H  0.23939815  0.20211249  0.80523631     0.14700
H750        H  0.25271220  0.26317949  0.84789610     0.14700
H751        H  0.27125584  0.31101232  0.72323140     0.27900
H752        H  0.28396857  0.36429668  0.76170047     0.27900
C753        C  0.31172215  0.30971264  0.87878409    -0.14700
C754        C  0.29451744  0.33956518  0.85945755    -0.29800
H755        H  0.32711185  0.28225622  0.86829445     0.14400
H756        H  0.27933640  0.36748576  0.86956399     0.14900
C757        C  0.28293880  0.30787921  0.60724115    -0.14700
C758        C  0.30228026  0.33393735  0.62762874    -0.29800
H759        H  0.26394370  0.28287470  0.61662870     0.14400
H760        H  0.32104218  0.35909835  0.61808787     0.14900
C761        C  0.45820518  0.30434089  0.90116315    -0.14700
C762        C  0.43554503  0.32832936  0.88162835    -0.29800
H763        H  0.95576858  0.28009592  0.88354185     0.14400
H764        H  0.41698379  0.35351116  0.89147803     0.14900
C765        C  0.47589439  0.32413954  0.63334601    -0.14700
C766        C  0.45857233  0.29621318  0.65332499    -0.29800
H767        H  0.97507971  0.36256073  0.63331896     0.14400
H768        H  0.44430439  0.26693998  0.64433513     0.14900
C769        C  0.31510227  0.52925332  0.72480381    -0.14700
C770        C  0.30048198  0.49907329  0.74492043    -0.29800
H771        H  0.33124261  0.51746873  0.70485218     0.14400
H772        H  0.28457629  0.51123070  0.76489747     0.14900
C773        C  0.33129967  0.50745047  0.48598994    -0.14700
C774        C  0.30389031  0.47731270  0.49208144    -0.29800
H775        H  0.36035409  0.49645984  0.48353998     0.14400
H776        H  0.27325017  0.49204187  0.99596273     0.14900
C777        C  0.28796974  0.65852215  0.86548856    -0.19100
C778        C  0.29758684  0.69131741  0.84526984    -0.29800
H779        H  0.27714712  0.62754332  0.85610167     0.14400
H780        H  0.30802040  0.72239274  0.85484072     0.14900
C781        C  0.32121217  0.67644777  0.59824158    -0.14700
C782        C  0.29536343  0.69969172  0.61472915    -0.29800
H783        H  0.34084397  0.65456539  0.61074843     0.14400
H784        H  0.27550511  0.72147797  0.60233599     0.14900
C785        C  0.44589935  0.47566802  0.75186407    -0.14700
C786        C  0.42091027  0.50842360  0.75777098    -0.29800
H787        H  0.96472798  0.48681114  0.73131970     0.14400
H788        H  0.39341847  0.49972822  0.76726719     0.14900
C789        C  0.45865602  0.48514782  0.00447213    -0.14700
C790        C  0.44112596  0.50809473  0.49606479    -0.29800
H791        H  0.96512012  0.50940079  0.97621877     0.14400
H792        H  0.42456957  0.49413616  0.47695115     0.14900
C793        C  0.43487235  0.66863305  0.89053978    -0.14700
C794        C  0.46421539  0.66615870  0.87056077    -0.29800
H795        H  0.40603284  0.67066616  0.88131727     0.14400
H796        H  0.96826786  0.63359531  0.87964840     0.14900
C797        C  0.46343523  0.66882834  0.64088035    -0.14700
C798        C  0.43584746  0.66332165  0.61919497    -0.29800
H799        H  0.99685801  0.68071306  0.63185931     0.14400
H800        H  0.40748803  0.65489394  0.62697383     0.14900
C801        C  0.24929603  0.14690183  0.72632993    -0.14700
C802        C  0.26610037  0.17293430  0.74823596    -0.29800
H803        H  0.24070150  0.16118846  0.70387338     0.14400
H804        H  0.27446343  0.15718539  0.77029657     0.14900
C805        C  0.25307707  0.88088804  0.75241144    -0.14700
C806        C  0.24700613  0.84996128  0.73017388    -0.29800
H807        H  0.26742421  0.87182181  0.77419731     0.14400
H808        H  0.23370196  0.86080101  0.70827191     0.14900
C809        C  0.28225526  0.14907669  0.48532783    -0.14700
C810        C  0.25781980  0.12485700  0.50246610    -0.29800
H811        H  0.29961274  0.13190305  0.46819495     0.14400
H812        H  0.23190692  0.14160190  0.96310936     0.14900
C813        C  0.26529618  0.85644621  0.50191908    -0.14700
C814        C  0.28279882  0.83287104  0.47934460    -0.29800
H815        H  0.24835720  0.84143807  0.01884128     0.14400
H816        H  0.29101973  0.84986182  0.45787056     0.14900
C817        C  0.47799225  0.12529766  0.75772979    -0.14700
C818        C  0.48231733  0.15541265  0.78085767    -0.29800
H819        H  0.46730693  0.13589873  0.73487926     0.14400
H820        H  0.97883539  0.14863764  0.79641315     0.14900
C821        C  0.48870356  0.82916196  0.75286071    -0.14700
C822        C  0.48445774  0.85869106  0.77643478    -0.29800
H823        H  0.00594614  0.84264879  0.73295652     0.14400
H824        H  0.47460670  0.84730565  0.79915452     0.14900
C825        C  0.37559865  0.99851520  0.76616397    -0.14700
C826        C  0.35567741  0.00528836  0.73945057    -0.29800
H827        H  0.36116393  0.99846744  0.78862705     0.14400
H828        H  0.37007816  0.00538299  0.71697465     0.14900
C829        C  0.10527606  0.00586557  0.76462756    -0.14700
C830        C  0.12669918  0.00753150  0.73851818    -0.29800
H831        H  0.11902379  0.00866273  0.78748178     0.14400
H832        H  0.11294893  0.00463395  0.71567117     0.14900
C833        C  0.47955632  0.15645995  0.02831651    -0.14700
C834        C  0.49565240  0.12815670  0.00776863    -0.29800
H835        H  0.46892225  0.14312914  0.05031647     0.14400
H836        H  0.01225054  0.15158916  0.47020763     0.14900
C837        C  0.47302277  0.83629773  0.51278613    -0.14700
C838        C  0.49389394  0.85996775  0.49212329    -0.29800
H839        H  0.46200580  0.85345131  0.53317588     0.14400
H840        H  0.99630650  0.85645193  0.04737075     0.14900
C841        C  0.36985418  0.99417064  0.51217589    -0.14700
C842        C  0.39321464  0.99798543  0.48749977    -0.29800
H843        H  0.37458276  0.99138859  0.96612708     0.14400
H844        H  0.38181131  0.00037859  0.46373001     0.14900
C845        C  0.11862001  0.99611174  0.50891559    -0.14700
C846        C  0.14398724  0.99232573  0.48569705    -0.29800
H847        H  0.12829903  0.99674580  0.53322638     0.14400
H848        H  0.11722897  0.98492468  0.96297914     0.14900
O849        O  0.56325705  0.99154808  0.47872934    -0.70000
O850        O  0.95692548  0.00098194  0.46064315    -0.70200
O851        O  0.51196112  0.05853445  0.47533065    -0.70100
O852        O  0.01056876  0.93794737  0.46698865    -0.70100
O853        O  0.49445417  0.93270532  0.04481640    -0.70100
O854        O  0.99403105  0.07266165  0.03096955    -0.70100
O855        O  0.94263532  0.00780587  0.03914751    -0.70000
O856        O  0.54850868  0.99660340  0.04273784    -0.70200
V857        V  0.50951232  0.99524342  0.47426954     1.35200
V858        V  0.99637902  0.00926936  0.03637983     1.35200
C859        C  0.56732312  0.99045777  0.01794801     0.79200
C860        C  0.92298999  0.00368210  0.01439064     0.79300
C861        C  0.00431223  0.08610993  0.49295304     0.79100
C862        C  0.99250860  0.92034929  0.02068449     0.79100
O863        O  0.55055670  0.00093771  0.28960636    -0.70000
O864        O  0.94550993  0.01564037  0.27468171    -0.70200
O865        O  0.49043857  0.94419847  0.28698384    -0.70100
O866        O  0.99768359  0.08025697  0.27406424    -0.70100
O867        O  0.50710449  0.06274858  0.22880553    -0.70100
O868        O  0.00972401  0.94481029  0.23678413    -0.70100
O869        O  0.95264051  0.00189158  0.22499734    -0.70000
O870        O  0.55850029  0.99681759  0.23916860    -0.70200
V871        V  0.49702093  0.00646295  0.28190471     1.35200
V872        V  0.00544460  0.00803194  0.23076837     1.35200
C873        C  0.57284272  0.99846636  0.26640893     0.79200
C874        C  0.93095091  0.00771382  0.24793387     0.79300
C875        C  0.00412809  0.92857991  0.26398648     0.79100
C876        C  0.99631311  0.09685413  0.24674713     0.79100
O877        O  0.75565467  0.04267696  0.46725900    -0.70000
O878        O  0.76443925  0.91615914  0.47361294    -0.70200
O879        O  0.70608122  0.97507620  0.46675850    -0.70100
O880        O  0.81313826  0.98459348  0.47369439    -0.70100
O881        O  0.80067707  0.98624122  0.01865154    -0.70100
O882        O  0.69215443  0.98636477  0.02005791    -0.70100
O883        O  0.74705903  0.92269058  0.02290684    -0.70000
O884        O  0.74703857  0.04906354  0.01635120    -0.70200
V885        V  0.75960503  0.97956528  0.47126856     1.35200
V886        V  0.74653292  0.98585412  0.01856587     1.35200
C887        C  0.74360152  0.06824173  0.98995626     0.79200
C888        C  0.75119439  0.89864901  0.99887201     0.79300
C889        C  0.67323386  0.98062748  0.99491166     0.79100
C890        C  0.81789889  0.98841361  0.99267974     0.79100
O891        O  0.75825236  0.94056264  0.23446202    -0.70000
O892        O  0.75239281  0.06548908  0.22291428    -0.70200
O893        O  0.80897096  0.00651138  0.23380679    -0.70100
O894        O  0.70116413  0.99915668  0.22523815    -0.70100
O895        O  0.69579560  0.00867293  0.27555907    -0.70100
O896        O  0.80260475  0.01401629  0.28425384    -0.70100
O897        O  0.74842161  0.07492239  0.27332574    -0.70000
O898        O  0.75225886  0.94806637  0.28488866    -0.70200
V899        V  0.75498804  0.00315990  0.23009799     1.35200
V900        V  0.74960112  0.01131571  0.27851551     1.35200
C901        C  0.75735328  0.92291157  0.26141093     0.79200
C902        C  0.75082331  0.09167623  0.24589887     0.79300
C903        C  0.82393696  0.01090134  0.26083836     0.79100
C904        C  0.68015913  0.00236850  0.24915457     0.79100
N905        N  0.96503760  0.73118291  0.46839206    -0.34800
N906        N  0.94933979  0.63590411  0.46306140    -0.55400
N907        N  0.92311783  0.63916751  0.03776501    -0.34800
N908        N  0.94169078  0.73498435  0.03985948    -0.55400
C909        C  0.95263182  0.72835453  0.43822773     0.28700
C910        C  0.96324179  0.77457417  0.47672665     0.28700
C911        C  0.91948471  0.59484385  0.03290050     0.28700
C912        C  0.91983346  0.64643695  0.06898757     0.28700
C913        C  0.95575045  0.64613710  0.43257945     0.37400
C914        C  0.95042430  0.59103426  0.46523649     0.37400
C915        C  0.94453399  0.77935200  0.03488059     0.37400
C916        C  0.92848378  0.72936870  0.06932444     0.37400
C917        C  0.94294610  0.77043020  0.42723960    -0.20100
C918        C  0.94939254  0.79949575  0.45154238    -0.20100
C919        C  0.91267508  0.57412444  0.06153353    -0.20100
C920        C  0.91288617  0.60639405  0.08406939    -0.20100
C921        C  0.96088757  0.60754501  0.41544648    -0.21200
C922        C  0.95746339  0.57273921  0.43607085    -0.21200
C923        C  0.93274914  0.80210490  0.06128961    -0.21200
C924        C  0.92260032  0.77043665  0.08305828    -0.21200
C925        C  0.95280210  0.68945779  0.41965676    -0.16500
C926        C  0.95802866  0.79897578  0.00676184    -0.16500
C927        C  0.92269639  0.68788861  0.08455918    -0.16500
C928        C  0.92086879  0.57251793  0.00347955    -0.16500
H929        H  0.93255987  0.77942314  0.40403223     0.16400
H930        H  0.94415289  0.83494206  0.45069451     0.16400
H931        H  0.90631222  0.53969102  0.06610253     0.16400
H932        H  0.90726002  0.60076385  0.10868195     0.16400
H933        H  0.96663609  0.60429766  0.39072384     0.14700
H934        H  0.95942720  0.53798292  0.43002441     0.14700
H935        H  0.93068463  0.83768045  0.06438667     0.14700
H936        H  0.91090232  0.77686224  0.10597710     0.14700
H937        H  0.97777013  0.70568316  0.48145656     0.27900
H938        H  0.92748955  0.66339251  0.02084782     0.27900
N939        N  0.97313390  0.73891933  0.21756236    -0.34800
N940        N  0.97653552  0.73856789  0.28477148    -0.55400
N941        N  0.95334066  0.64378332  0.28373241    -0.34800
N942        N  0.94593641  0.64550825  0.21690792    -0.55400
C943        C  0.97748057  0.78293265  0.22334753     0.28700
C944        C  0.95940451  0.73530735  0.18790900     0.28700
C945        C  0.94960234  0.65391946  0.31449842     0.28700
C946        C  0.93610746  0.60407957  0.27892314     0.28700
C947        C  0.99534357  0.77707853  0.27950902     0.37400
C948        C  0.98428820  0.72630105  0.31474699     0.37400
C949        C  0.95117453  0.65277611  0.18586464     0.37400
C950        C  0.94346910  0.60084723  0.22113040     0.37400
C951        C  0.96619220  0.80735133  0.19713561    -0.20100
C952        C  0.95499679  0.77737994  0.17481729    -0.20100
C953        C  0.92924131  0.62057051  0.32927577    -0.20100
C954        C  0.92145228  0.58884130  0.30707555    -0.20100
C955        C  0.01508736  0.78934455  0.30636514    -0.21200
C956        C  0.00776531  0.75743961  0.32877892    -0.21200
C957        C  0.95177181  0.61254741  0.17020085    -0.21200
C958        C  0.94639047  0.57974986  0.19240203    -0.21200
C959        C  0.99332000  0.80159412  0.25094310    -0.16500
C960        C  0.95366983  0.69526099  0.17133066    -0.16500
C961        C  0.93631374  0.57972019  0.25046693    -0.16500
C962        C  0.96844100  0.68909048  0.33021935    -0.16500
H963        H  0.96618748  0.84310213  0.19419481     0.16400
H964        H  0.94527531  0.78579986  0.15140731     0.16400
H965        H  0.92125582  0.61863345  0.35366797     0.16400
H966        H  0.90717451  0.55776417  0.31153959     0.16400
H967        H  0.03307856  0.81801877  0.30955457     0.14700
H968        H  0.01856243  0.75718765  0.35267531     0.14700
H969        H  0.95613636  0.60728322  0.14540794     0.14700
H970        H  0.94488020  0.54455641  0.18772283     0.14700
H971        H  0.98327557  0.71278340  0.23136467     0.27900
H972        H  0.97129801  0.65987371  0.26822221     0.27900
N973        N  0.79405750  0.70457543  0.45248229    -0.34800
N974        N  0.79461064  0.71224247  0.01999876    -0.55400
N975        N  0.81268008  0.61642798  0.02139592    -0.34800
N976        N  0.80289984  0.60748025  0.45526838    -0.55400
C977        C  0.77997891  0.74584392  0.45826885     0.28700
C978        C  0.78100297  0.69227836  0.42371721     0.28700
C979        C  0.81183446  0.62512904  0.05268545     0.28700
C980        C  0.81272801  0.57149416  0.01783038     0.28700
C981        C  0.79494757  0.75614162  0.01246381     0.37400
C982        C  0.80922791  0.70836693  0.04948371     0.37400
C983        C  0.80292296  0.61341680  0.42367400     0.37400
C984        C  0.81497552  0.56525535  0.46085582     0.37400
C985        C  0.75770602  0.75967846  0.43300110    -0.20100
C986        C  0.75800758  0.72576144  0.41150504    -0.20100
C987        C  0.81224516  0.58499419  0.06902481    -0.20100
C988        C  0.81292827  0.55150699  0.04721008    -0.20100
C989        C  0.81043410  0.78010626  0.03711166    -0.21200
C990        C  0.81933437  0.74995628  0.06051144    -0.21200
C991        C  0.81468146  0.57462376  0.40919117    -0.21200
C992        C  0.82209138  0.54421549  0.43265422    -0.21200
C993        C  0.77976117  0.77457987  0.98413059    -0.16500
C994        C  0.79046612  0.65242442  0.40764848    -0.16500
C995        C  0.81436872  0.54774602  0.98899687    -0.16500
C996        C  0.81236704  0.66803585  0.06699768    -0.16500
H997        H  0.74232552  0.79075740  0.43047656     0.16400
H998        H  0.74227947  0.72534481  0.38967808     0.16400
H999        H  0.81298433  0.57973234  0.09410777     0.16400
H1000       H  0.81410502  0.51634941  0.05257119     0.16400
H1001       H  0.81529036  0.81553153  0.03813717     0.14700
H1002       H  0.83238461  0.75777133  0.08290225     0.14700
H1003       H  0.81752839  0.56851986  0.38431908     0.14700
H1004       H  0.83177080  0.51053151  0.42919319     0.14700
H1005       H  0.81466475  0.68795363  0.46573410     0.27900
H1006       H  0.81626346  0.63980175  0.00373777     0.27900
N1007       N  0.78417303  0.73521286  0.20463529    -0.34800
N1008       N  0.80292343  0.64048497  0.20138953    -0.55400
N1009       N  0.79653702  0.63484817  0.26977844    -0.34800
N1010       N  0.78489599  0.73122385  0.27287227    -0.55400
C1011       C  0.79618589  0.73157441  0.17451271     0.28700
C1012       C  0.78517017  0.77890962  0.21236581     0.28700
C1013       C  0.81137574  0.59457469  0.26262467     0.28700
C1014       C  0.80511310  0.64302811  0.30035443     0.28700
C1015       C  0.79407122  0.64945173  0.17092740     0.37400
C1016       C  0.79917076  0.59596435  0.20521215     0.37400
C1017       C  0.76714065  0.77080706  0.26817316     0.37400
C1018       C  0.77681061  0.71834180  0.30256304     0.37400
C1019       C  0.80524185  0.77335968  0.16305500    -0.20100
C1020       C  0.79843108  0.80315470  0.18689368    -0.20100
C1021       C  0.82970797  0.57706390  0.28883709    -0.20100
C1022       C  0.82617014  0.60779636  0.31254575    -0.20100
C1023       C  0.78419031  0.61070363  0.15564092    -0.21200
C1024       C  0.78816974  0.57678675  0.17708548    -0.21200
C1025       C  0.74676611  0.78221847  0.29466943    -0.21200
C1026       C  0.75360948  0.74950896  0.31662741    -0.21200
C1027       C  0.79627687  0.69196590  0.15652057    -0.16500
C1028       C  0.77152532  0.79747569  0.24087287    -0.16500
C1029       C  0.79207100  0.68023131  0.31766179    -0.16500
C1030       C  0.80652019  0.57239358  0.23355753    -0.16500
H1031       H  0.81537291  0.78161532  0.13982084     0.16400
H1032       H  0.80253289  0.83871660  0.18543951     0.16400
H1033       H  0.84423560  0.54545656  0.29063368     0.16400
H1034       H  0.83771429  0.60436597  0.33605801     0.16400
H1035       H  0.77408010  0.60732006  0.13175506     0.14700
H1036       H  0.78285222  0.54218499  0.17242228     0.14700
H1037       H  0.72845824  0.81074001  0.29796246     0.14700
H1038       H  0.74197613  0.74838538  0.33993994     0.14700
H1039       H  0.77166433  0.71015242  0.21777813     0.27900
H1040       H  0.77810164  0.65328852  0.25558862     0.27900
N1041       N  0.96687835  0.28805223  0.04265703    -0.34800
N1042       N  0.96928495  0.27525194  0.47439687    -0.55400
N1043       N  0.95395447  0.37186864  0.47138548    -0.34800
N1044       N  0.95527571  0.38479936  0.03484995    -0.55400
C1045       C  0.97991639  0.24573784  0.03900851     0.28700
C1046       C  0.98066795  0.30307862  0.07047430     0.28700
C1047       C  0.96385747  0.36286282  0.44135994     0.28700
C1048       C  0.96117561  0.41552818  0.47665007     0.28700
C1049       C  0.96706792  0.23107631  0.48112637     0.37400
C1050       C  0.95840019  0.28047912  0.44388639     0.37400
C1051       C  0.96168125  0.38337584  0.06637975     0.37400
C1052       C  0.94813311  0.42799970  0.02712104     0.37400
C1053       C  0.00241283  0.23410281  0.06469531    -0.20100
C1054       C  0.00301958  0.27018638  0.08435483    -0.20100
C1055       C  0.97745071  0.40131374  0.42736391    -0.20100
C1056       C  0.97581259  0.43444492  0.44961219    -0.20100
C1057       C  0.95391677  0.20850732  0.45494354    -0.21200
C1058       C  0.94885096  0.23957650  0.43139272    -0.21200
C1059       C  0.95874918  0.42590020  0.07853403    -0.21200
C1060       C  0.95121193  0.45390572  0.05376847    -0.21200
C1061       C  0.97859328  0.21100228  0.51018476    -0.16500
C1062       C  0.97325226  0.34527285  0.08416397    -0.16500
C1063       C  0.95425790  0.43846203  0.50517077    -0.16500
C1064       C  0.96023801  0.32090075  0.42639776    -0.16500
H1065       H  0.01718517  0.20294623  0.06881490     0.16400
H1066       H  0.01878819  0.27218967  0.10618677     0.16400
H1067       H  0.98845596  0.40494997  0.40385840     0.16400
H1068       H  0.98519425  0.46829078  0.44641571     0.16400
H1069       H  0.94836360  0.17333077  0.45286623     0.14700
H1070       H  0.93922843  0.23272771  0.40772998     0.14700
H1071       H  0.96359165  0.43656263  0.10243140     0.14700
H1072       H  0.95089916  0.48957969  0.05522102     0.14700
H1073       H  0.94659544  0.30412506  0.02869995     0.27900
H1074       H  0.94024861  0.35007451  0.48658799     0.27900
N1075       N  0.96667990  0.29209643  0.29188972    -0.34800
N1076       N  0.97287693  0.28626192  0.22402405    -0.55400
N1077       N  0.95999421  0.38220770  0.21899650    -0.34800
N1078       N  0.94712927  0.38734106  0.28651135    -0.55400
C1079       C  0.96539779  0.24749096  0.28698127     0.28700
C1080       C  0.95034337  0.30027071  0.32007733     0.28700
C1081       C  0.95492144  0.36961626  0.18870331     0.28700
C1082       C  0.94531540  0.42365638  0.22179342     0.28700
C1083       C  0.98955521  0.24733018  0.23261664     0.37400
C1084       C  0.98320047  0.29431023  0.19399280     0.37400
C1085       C  0.95017934  0.38316654  0.31821996     0.37400
C1086       C  0.94958779  0.43144679  0.27970128     0.37400
C1087       C  0.94751157  0.22727062  0.31215976    -0.20100
C1088       C  0.93776149  0.26050255  0.33282053    -0.20100
C1089       C  0.93604232  0.40325133  0.17232790    -0.20100
C1090       C  0.93059740  0.43763298  0.19309480    -0.20100
C1091       C  0.01172207  0.23161661  0.20824687    -0.21200
C1092       C  0.00688432  0.26077955  0.18355160    -0.21200
C1093       C  0.95367261  0.42497240  0.33152924    -0.21200
C1094       C  0.95355097  0.45537794  0.30720052    -0.21200
C1095       C  0.98178346  0.22460291  0.26114095    -0.16500
C1096       C  0.94870660  0.34231679  0.33532469    -0.16500
C1097       C  0.94745741  0.45027889  0.24898293    -0.16500
C1098       C  0.96930793  0.32988408  0.17529034    -0.16500
H1099       H  0.94177367  0.19222825  0.31526668     0.16400
H1100       H  0.92289766  0.25586925  0.35470770     0.16400
H1101       H  0.92743202  0.40343696  0.14787723     0.16400
H1102       H  0.91699483  0.46916222  0.18779638     0.16400
H1103       H  0.02953178  0.20223465  0.20801130     0.14700
H1104       H  0.01981902  0.25798744  0.16071973     0.14700
H1105       H  0.95646213  0.43295600  0.35617076     0.14700
H1106       H  0.95607436  0.49101591  0.30956917     0.14700
H1107       H  0.98164433  0.31506158  0.27846318     0.27900
H1108       H  0.97643938  0.36574542  0.23593584     0.27900
N1109       N  0.77912833  0.25820748  0.03525156    -0.34800
N1110       N  0.80118332  0.25282508  0.46706395    -0.55400
N1111       N  0.80727392  0.34986638  0.46726313    -0.34800
N1112       N  0.79355044  0.35465392  0.03542847    -0.55400
C1113       C  0.78009155  0.21349567  0.03078567     0.28700
C1114       C  0.78310508  0.26560130  0.06658303     0.28700
C1115       C  0.81886340  0.34022901  0.43783990     0.28700
C1116       C  0.81833074  0.39200885  0.47361232     0.28700
C1117       C  0.79244971  0.20940089  0.47146501     0.37400
C1118       C  0.80068187  0.26037642  0.43566289     0.37400
C1119       C  0.78113978  0.34862138  0.06530337     0.37400
C1120       C  0.78840593  0.39840715  0.02833518     0.37400
C1121       C  0.78439391  0.19252627  0.05978804    -0.20100
C1122       C  0.78657163  0.22514155  0.08210839    -0.20100
C1123       C  0.83851495  0.37610759  0.42566529    -0.20100
C1124       C  0.83797735  0.40884492  0.44812745    -0.20100
C1125       C  0.78764887  0.18908478  0.44253824    -0.21200
C1126       C  0.79228517  0.22133984  0.42001378    -0.21200
C1127       C  0.76848256  0.38870019  0.07714016    -0.21200
C1128       C  0.77327544  0.42016221  0.05400512    -0.21200
C1129       C  0.77549741  0.19073556  0.00165280    -0.16500
C1130       C  0.78058216  0.30737277  0.08196953    -0.16500
C1131       C  0.79887608  0.41944351  0.99963900    -0.16500
C1132       C  0.80950065  0.30135252  0.42084114    -0.16500
H1133       H  0.78540034  0.15728420  0.06482320     0.16400
H1134       H  0.78954011  0.21932756  0.10708767     0.16400
H1135       H  0.85155122  0.37860662  0.40280030     0.16400
H1136       H  0.85071805  0.44113767  0.44567511     0.16400
H1137       H  0.78228676  0.15448349  0.43768438     0.14700
H1138       H  0.79056624  0.21600997  0.39494745     0.14700
H1139       H  0.75556035  0.39440788  0.09960378     0.14700
H1140       H  0.76585404  0.45496185  0.05588913     0.14700
H1141       H  0.77208196  0.28200791  0.01847621     0.27900
H1142       H  0.78805791  0.33136442  0.48031235     0.27900
N1143       N  0.77528283  0.28245530  0.21978920    -0.34800
N1144       N  0.79034526  0.37914968  0.21882211    -0.55400
N1145       N  0.78703839  0.38125394  0.28694584    -0.34800
N1146       N  0.77886269  0.28508309  0.28845669    -0.55400
C1147       C  0.78809871  0.28896465  0.19008001     0.28700
C1148       C  0.78042634  0.23881108  0.22730419     0.28700
C1149       C  0.79873970  0.42306023  0.28045293     0.28700
C1150       C  0.79606684  0.37263529  0.31739574     0.28700
C1151       C  0.78171736  0.37123168  0.18828081     0.37400
C1152       C  0.78440121  0.42324753  0.22341533     0.37400
C1153       C  0.76543101  0.24350370  0.28411647     0.37400
C1154       C  0.77350783  0.29468873  0.31915674     0.37400
C1155       C  0.80171699  0.24895743  0.17864318    -0.20100
C1156       C  0.79681893  0.21737642  0.20201063    -0.20100
C1157       C  0.81521825  0.44129169  0.30709224    -0.20100
C1158       C  0.81365389  0.40943979  0.33037034    -0.20100
C1159       C  0.77020102  0.41029095  0.17361264    -0.21200
C1160       C  0.77120325  0.44292825  0.19595099    -0.21200
C1161       C  0.75091763  0.22706991  0.31206956    -0.21200
C1162       C  0.75595437  0.25951348  0.33419066    -0.21200
C1163       C  0.78650972  0.32991898  0.17298723    -0.16500
C1164       C  0.77031888  0.21834683  0.25641865    -0.16500
C1165       C  0.78676362  0.33352457  0.33420258    -0.16500
C1166       C  0.79245055  0.44604061  0.25177570    -0.16500
H1167       H  0.81462304  0.24324438  0.15607303     0.16400
H1168       H  0.80525638  0.18281885  0.20069866     0.16400
H1169       H  0.82703788  0.47415880  0.30960346     0.16400
H1170       H  0.82390571  0.41326181  0.35423096     0.16400
H1171       H  0.76117251  0.41480237  0.14954843     0.14700
H1172       H  0.76248548  0.47700754  0.19244287     0.14700
H1173       H  0.73851106  0.19476698  0.31627305     0.14700
H1174       H  0.74779216  0.25733382  0.35859210     0.14700
H1175       H  0.76094195  0.30582500  0.23328100     0.27900
H1176       H  0.77003404  0.36182048  0.27245487     0.27900
C1177       C  0.80947234  0.30291919  0.38568502    -0.14700
C1178       C  0.79011016  0.33425938  0.36925039    -0.29800
H1179       H  0.82289165  0.27587754  0.37305700     0.14400
H1180       H  0.77681940  0.36163168  0.38163470     0.14900
C1181       C  0.77393968  0.30627835  0.11706184    -0.14700
C1182       C  0.79308870  0.33145381  0.13800172    -0.29800
H1183       H  0.75390805  0.28209860  0.12606143     0.14400
H1184       H  0.81292429  0.35602250  0.12922397     0.14900
C1185       C  0.96293294  0.31761940  0.39112031    -0.14700
C1186       C  0.94399909  0.34451559  0.37058383    -0.29800
H1187       H  0.48231696  0.28079873  0.39347637     0.14400
H1188       H  0.92601416  0.37061089  0.37995875     0.14900
C1189       C  0.98024711  0.35108420  0.11888044    -0.14700
C1190       C  0.96657830  0.32255317  0.14054810    -0.29800
H1191       H  0.49840889  0.36645060  0.13875835     0.14400
H1192       H  0.95274937  0.29231410  0.13276648     0.14900
C1193       C  0.80965038  0.52262912  0.23222410    -0.14700
C1194       C  0.79191006  0.49589739  0.25296966    -0.29800
H1195       H  0.82473716  0.50784449  0.21270609     0.14400
H1196       H  0.77698777  0.51101004  0.27245810     0.14900
C1197       C  0.82124725  0.49834401  0.99010402    -0.14700
C1198       C  0.79355450  0.46915066  0.99709452    -0.29800
H1199       H  0.84940919  0.48620423  0.98478639     0.14400
H1200       H  0.77068070  0.47737917  0.50074739     0.14900
C1201       C  0.78502347  0.64988888  0.37255063    -0.19100
C1202       C  0.79676147  0.68206946  0.35270810    -0.29800
H1203       H  0.77263813  0.61998380  0.36273972     0.14400
H1204       H  0.80888971  0.71217828  0.36244333     0.14900
C1205       C  0.81703222  0.66971849  0.10225025    -0.14700
C1206       C  0.79575939  0.69580997  0.12117262    -0.29800
H1207       H  0.83619688  0.64579157  0.11324018     0.14400
H1208       H  0.77652487  0.72012000  0.11065309     0.14900
C1209       C  0.95291983  0.49932259  0.24407445    -0.14700
C1210       C  0.92746928  0.53077625  0.25220914    -0.29800
H1211       H  0.47876476  0.49592410  0.24426131     0.14400
H1212       H  0.90134304  0.52035310  0.26333151     0.14900
C1213       C  0.95801893  0.48801951  0.50722839    -0.14700
C1214       C  0.91750644  0.52255679  0.00409012    -0.29800
H1215       H  0.47798930  0.49496751  0.53376131     0.14400
H1216       H  0.89617029  0.50790809  0.01910544     0.14900
C1217       C  0.94686319  0.69443066  0.38513759    -0.14700
C1218       C  0.97448395  0.68503885  0.36469045    -0.29800
H1219       H  0.91964381  0.70690102  0.37653749     0.14400
H1220       H  0.49351006  0.67542260  0.37703034     0.14900
C1221       C  0.95213687  0.69884040  0.13648508    -0.14700
C1222       C  0.92156559  0.68690184  0.11954076    -0.29800
H1223       H  0.46886096  0.65479244  0.12927501     0.14400
H1224       H  0.89742588  0.67215972  0.13130131     0.14900
C1225       C  0.75227317  0.14050853  0.24004211    -0.14700
C1226       C  0.76890292  0.16856419  0.26039185    -0.29800
H1227       H  0.74107960  0.15321392  0.21787020     0.14400
H1228       H  0.78028246  0.15462594  0.28217069     0.14900
C1229       C  0.76415246  0.87434406  0.26517930    -0.14700
C1230       C  0.76091995  0.84613972  0.24059117    -0.29800
H1231       H  0.77440049  0.86263475  0.28786767     0.14400
H1232       H  0.75159595  0.86004470  0.21818127     0.14900
C1233       C  0.77147156  0.14091466  0.00322027    -0.14700
C1234       C  0.74490901  0.11740936  0.98746252    -0.29800
H1235       H  0.79110738  0.12269143  0.01840705     0.14400
H1236       H  0.73712275  0.13271568  0.47558350     0.14900
C1237       C  0.75660251  0.84969084  0.00268481    -0.14700
C1238       C  0.77287247  0.82394716  0.98061057    -0.29800
H1239       H  0.75656862  0.83261794  0.52548182     0.14400
H1240       H  0.78018980  0.83919638  0.95826878     0.14900
C1241       C  0.98866652  0.14512645  0.24175127    -0.14700
C1242       C  0.99073231  0.17560922  0.26505887    -0.29800
H1243       H  0.97944585  0.15513664  0.21837759     0.14400
H1244       H  0.50589259  0.15163634  0.29686111     0.14900
C1245       C  0.00714878  0.84877643  0.24850379    -0.14700
C1246       C  0.99935308  0.88018268  0.26987372    -0.29800
H1247       H  0.50142740  0.84782764  0.22455975     0.14400
H1248       H  0.98552525  0.87076285  0.29159750     0.14900
C1249       C  0.88974475  0.00570306  0.24270224    -0.14700
C1250       C  0.86518041  0.01232157  0.26591333    -0.29800
H1251       H  0.87942490  0.99907001  0.21905242     0.14400
H1252       H  0.87555316  0.01853146  0.28960971     0.14900
C1253       C  0.61467671  0.99891064  0.27074753    -0.14700
C1254       C  0.63838263  0.99904601  0.24594532    -0.29800
H1255       H  0.62608017  0.00072121  0.29450594     0.14400
H1256       H  0.62679777  0.99702684  0.22225164     0.14900
C1257       C  0.98430703  0.16115409  0.51313711    -0.14700
C1258       C  0.00152485  0.13572831  0.49129741    -0.29800
H1259       H  0.97450879  0.14508651  0.53449122     0.14400
H1260       H  0.50718822  0.14126831  0.98605283     0.14900
C1261       C  0.96605374  0.84797554  0.00462830    -0.14700
C1262       C  0.98609178  0.87191343  0.02575819    -0.29800
H1263       H  0.95620702  0.86477917  0.98335852     0.14400
H1264       H  0.50479155  0.84363761  0.47135547     0.14900
C1265       C  0.85949535  0.99289489  0.99096437    -0.14700
C1266       C  0.88131297  0.00014837  0.01640930    -0.29800
H1267       H  0.88220695  0.98673445  0.52727714     0.14400
H1268       H  0.86842735  0.00248685  0.03945014     0.14900
C1269       C  0.60951103  0.98872028  0.01945469    -0.14700
C1270       C  0.63103458  0.98071584  0.99409709    -0.29800
H1271       H  0.62316866  0.99451672  0.04204251     0.14400
H1272       H  0.63226708  0.97899147  0.46270529     0.14900
O1273       O  0.54914394  0.98613629  0.99230854    -0.70000
O1274       O  0.93998672  0.00167067  0.98833844    -0.70200
O1275       O  0.49928497  0.05448679  0.98796114    -0.70100
O1276       O  0.99152835  0.93707021  0.99330793    -0.70100
O1277       O  0.49939636  0.92839083  0.52154469    -0.70100
O1278       O  0.00065920  0.06412539  0.51832994    -0.70100
O1279       O  0.94830223  0.00041263  0.51112788    -0.70000
O1280       O  0.55613180  0.98899126  0.52935321    -0.70200
V1281       V  0.49503171  0.99164185  0.99208017     1.35200
V1282       V  0.00130550  0.00008727  0.51704364     1.35200
C1283       C  0.57796075  0.98909414  0.50593636     0.79200
C1284       C  0.93451768  0.99964350  0.48368977     0.79300
C1285       C  0.99325120  0.08921599  0.00347157     0.79100
C1286       C  0.00416061  0.91544748  0.49153459     0.79100
O1287       O  0.54373846  0.99591756  0.79281928    -0.70000
O1288       O  0.93675679  0.99705190  0.78953504    -0.70200
O1289       O  0.48886020  0.93256786  0.79643632    -0.70100
O1290       O  0.98676336  0.06281482  0.78328313    -0.70100
O1291       O  0.48606961  0.05244662  0.73768366    -0.70100
O1292       O  0.99359757  0.92720308  0.74480477    -0.70100
O1293       O  0.93624537  0.98683490  0.73904078    -0.70000
O1294       O  0.54384710  0.99290270  0.74186670    -0.70200
V1295       V  0.48953152  0.99570111  0.79144333     1.35200
V1296       V  0.99033099  0.99047160  0.73980430     1.35200
C1297       C  0.56229116  0.99599080  0.76747658     0.79200
C1298       C  0.91812562  0.99204226  0.76434797     0.79300
C1299       C  0.99216708  0.91029859  0.77212657     0.79100
C1300       C  0.98280711  0.07900038  0.75586982     0.79100
O1301       O  0.73977903  0.04428319  0.96574298    -0.70000
O1302       O  0.75113688  0.91770308  0.97217975    -0.70200
O1303       O  0.69131752  0.97535980  0.96967575    -0.70100
O1304       O  0.79855525  0.98701766  0.96760470    -0.70100
O1305       O  0.80875398  0.98279930  0.52460876    -0.70100
O1306       O  0.70111171  0.98508127  0.51707520    -0.70100
O1307       O  0.75448870  0.92036260  0.52378655    -0.70000
O1308       O  0.75667811  0.04691256  0.51821985    -0.70200
V1309       V  0.74507940  0.98108554  0.96974890     1.35200
V1310       V  0.75516949  0.98360479  0.51998516     1.35200
C1311       C  0.75667382  0.06629213  0.49175433     0.79200
C1312       C  0.76116102  0.89667807  0.49995789     0.79300
C1313       C  0.68526183  0.98029942  0.49048861     0.79100
C1314       C  0.82910834  0.98513555  0.50037212     0.79100
O1315       O  0.73891559  0.93773776  0.72243636    -0.70000
O1316       O  0.74169064  0.06426085  0.71052200    -0.70200
O1317       O  0.79352323  0.99830458  0.71519443    -0.70100
O1318       O  0.68568047  0.00271116  0.71704313    -0.70100
O1319       O  0.68717262  0.01123691  0.76765756    -0.70100
O1320       O  0.79577525  0.00724280  0.76578802    -0.70100
O1321       O  0.74392010  0.07270292  0.76110931    -0.70000
O1322       O  0.74130202  0.94738923  0.77295187    -0.70200
V1323       V  0.73972950  0.00107284  0.71726917     1.35200
V1324       V  0.74167844  0.00968596  0.76585526     1.35200
C1325       C  0.74179180  0.92124965  0.74988364     0.79200
C1326       C  0.74523985  0.08992229  0.73392610     0.79300
C1327       C  0.81297587  0.00094821  0.74016102     0.79100
C1328       C  0.66789275  0.00635587  0.74256981     0.79100
N1329       N  0.94478767  0.73504586  0.97176577    -0.34800
N1330       N  0.93405253  0.63792920  0.96981649    -0.55400
N1331       N  0.95083836  0.62731689  0.53107457    -0.34800
N1332       N  0.96299039  0.72311050  0.53631619    -0.55400
C1333       C  0.95273996  0.72553620  0.94141041     0.28700
C1334       C  0.96164120  0.77444401  0.97850311     0.28700
C1335       C  0.93713858  0.58707403  0.52231938     0.28700
C1336       C  0.94008193  0.63452942  0.56122847     0.28700
C1337       C  0.92754539  0.64841365  0.93921526     0.37400
C1338       C  0.92215205  0.59551611  0.97419726     0.37400
C1339       C  0.97643258  0.76518125  0.53380972     0.37400
C1340       C  0.96589750  0.71122785  0.56707755     0.37400
C1341       C  0.97459860  0.75925617  0.92879010    -0.20100
C1342       C  0.98054734  0.78973147  0.95214889    -0.20100
C1343       C  0.91750856  0.56849130  0.54709836    -0.20100
C1344       C  0.91940779  0.59817269  0.57161995    -0.20100
C1345       C  0.91042254  0.61285991  0.92442198    -0.21200
C1346       C  0.90822758  0.57889502  0.94617963    -0.21200
C1347       C  0.98837071  0.77984647  0.56299102    -0.21200
C1348       C  0.98138756  0.74614077  0.58396587    -0.21200
C1349       C  0.93936935  0.68842699  0.92423398    -0.16500
C1350       C  0.97461038  0.79210164  0.50628839    -0.16500
C1351       C  0.95066641  0.67148518  0.58021045    -0.16500
C1352       C  0.94263692  0.56635817  0.49272554    -0.16500
H1353       H  0.98526500  0.76183301  0.90517885     0.16400
H1354       H  0.99664500  0.82009336  0.94977566     0.16400
H1355       H  0.90245288  0.53731897  0.54717970     0.16400
H1356       H  0.90688106  0.59328053  0.59448913     0.16400
H1357       H  0.89933847  0.61210965  0.90082081     0.14700
H1358       H  0.89570822  0.54660464  0.94233967     0.14700
H1359       H  0.00007964  0.81194524  0.56886466     0.14700
H1360       H  0.98703365  0.74813722  0.60879552     0.14700
H1361       H  0.92507035  0.71838275  0.98550801     0.27900
H1362       H  0.96966963  0.64660180  0.51819003     0.27900
N1363       N  0.96843727  0.71835493  0.72049198    -0.34800
N1364       N  0.96254939  0.71883710  0.78914765    -0.55400
N1365       N  0.94291541  0.62336769  0.78602325    -0.34800
N1366       N  0.94265053  0.62526516  0.71757608    -0.55400
C1367       C  0.97030563  0.76268061  0.72664359     0.28700
C1368       C  0.96053460  0.71385009  0.68931946     0.28700
C1369       C  0.93969542  0.63077301  0.81735342     0.28700
C1370       C  0.92744139  0.58289430  0.78001408     0.28700
C1371       C  0.98136599  0.75762658  0.78450938     0.37400
C1372       C  0.96891295  0.70643201  0.81946991     0.37400
C1373       C  0.94994734  0.63174597  0.68667446     0.37400
C1374       C  0.93572252  0.58126697  0.72156554     0.37400
C1375       C  0.96296574  0.78621792  0.69905279    -0.20100
C1376       C  0.95706377  0.75557417  0.67567868    -0.20100
C1377       C  0.92245834  0.59446622  0.83120388    -0.20100
C1378       C  0.91479536  0.56461442  0.80796300    -0.20100
C1379       C  0.00009610  0.76946903  0.81197381    -0.21200
C1380       C  0.99207384  0.73726739  0.83402152    -0.21200
C1381       C  0.94679122  0.59184903  0.67081150    -0.21200
C1382       C  0.93727190  0.56012276  0.69273118    -0.21200
C1383       C  0.98115883  0.78243223  0.75582243    -0.16500
C1384       C  0.95814269  0.67332987  0.67234546    -0.16500
C1385       C  0.92669280  0.56033411  0.75066470    -0.16500
C1386       C  0.95414621  0.66771382  0.83429743    -0.16500
H1387       H  0.96184363  0.82189164  0.69586167     0.16400
H1388       H  0.95008648  0.76327891  0.65148065     0.16400
H1389       H  0.91678061  0.58889067  0.85563766     0.16400
H1390       H  0.90146264  0.53285503  0.81172600     0.16400
H1391       H  0.01876612  0.79743449  0.81559724     0.14700
H1392       H  0.00348420  0.73562466  0.85762796     0.14700
H1393       H  0.95044978  0.58613360  0.64594680     0.14700
H1394       H  0.93202480  0.52551098  0.68772119     0.14700
H1395       H  0.97658270  0.69306329  0.73551820     0.27900
H1396       H  0.95804485  0.64257114  0.77065813     0.27900
N1397       N  0.78698420  0.70723229  0.95144786    -0.34800
N1398       N  0.80127841  0.70972673  0.52092029    -0.55400
N1399       N  0.81633120  0.61337316  0.52293451    -0.34800
N1400       N  0.79909972  0.61084954  0.95370170    -0.55400
C1401       C  0.77176433  0.74783172  0.95752624     0.28700
C1402       C  0.77406564  0.69477080  0.92268321     0.28700
C1403       C  0.81642342  0.62227947  0.55415092     0.28700
C1404       C  0.81642231  0.56849199  0.51961422     0.28700
C1405       C  0.80262402  0.75355669  0.51338868     0.37400
C1406       C  0.81553918  0.70550865  0.55047330     0.37400
C1407       C  0.79756764  0.61654724  0.92209997     0.37400
C1408       C  0.81055803  0.56835915  0.95904189     0.37400
C1409       C  0.74877541  0.76096872  0.93249556    -0.20100
C1410       C  0.74997267  0.72740707  0.91075001    -0.20100
C1411       C  0.81715487  0.58235866  0.57074651    -0.20100
C1412       C  0.81713878  0.54868243  0.54907965    -0.20100
C1413       C  0.81831771  0.77714259  0.53813065    -0.21200
C1414       C  0.82632374  0.74680543  0.56160255    -0.21200
C1415       C  0.80793457  0.57738217  0.90738096    -0.21200
C1416       C  0.81580780  0.54693730  0.93068545    -0.21200
C1417       C  0.78816781  0.77234848  0.48496209    -0.16500
C1418       C  0.78438731  0.65547947  0.90636588    -0.16500
C1419       C  0.81858091  0.54479405  0.49089773    -0.16500
C1420       C  0.81770034  0.66523025  0.56807883    -0.16500
H1421       H  0.73248346  0.79144687  0.93023015     0.16400
H1422       H  0.73426908  0.72674107  0.88886310     0.16400
H1423       H  0.81886098  0.57744206  0.59585614     0.16400
H1424       H  0.81861431  0.51355913  0.55454706     0.16400
H1425       H  0.82384463  0.81243029  0.53917419     0.14700
H1426       H  0.83916466  0.75424791  0.58414795     0.14700
H1427       H  0.80909188  0.57081040  0.88247825     0.14700
H1428       H  0.82436254  0.51289059  0.92699954     0.14700
H1429       H  0.80826608  0.69134430  0.96450372     0.27900
H1430       H  0.81943276  0.63646462  0.50517426     0.27900
N1431       N  0.77963963  0.73326973  0.70256963    -0.34800
N1432       N  0.80213031  0.63927354  0.70183195    -0.55400
N1433       N  0.79245871  0.63524377  0.76966776    -0.34800
N1434       N  0.77744035  0.73210517  0.77038928    -0.55400
C1435       C  0.79310417  0.72962826  0.67296781     0.28700
C1436       C  0.77597365  0.77714128  0.70877090     0.28700
C1437       C  0.80762308  0.59458795  0.76375584     0.28700
C1438       C  0.80037359  0.64519336  0.80008641     0.28700
C1439       C  0.79471986  0.64739376  0.67098565     0.37400
C1440       C  0.79806641  0.59484601  0.70611093     0.37400
C1441       C  0.75816872  0.77062239  0.76482929     0.37400
C1442       C  0.77105087  0.72075278  0.80071661     0.37400
C1443       C  0.79850614  0.77169290  0.66034838    -0.20100
C1444       C  0.78763943  0.80166098  0.68288860    -0.20100
C1445       C  0.82502246  0.57838400  0.79073938    -0.20100
C1446       C  0.82124401  0.61057039  0.81344323    -0.20100
C1447       C  0.78543051  0.60836722  0.65591720    -0.21200
C1448       C  0.78792381  0.57518128  0.67797583    -0.21200
C1449       C  0.73893308  0.78314027  0.79166945    -0.21200
C1450       C  0.74783434  0.75222328  0.81451074    -0.21200
C1451       C  0.79664118  0.68950716  0.65606058    -0.16500
C1452       C  0.75973063  0.79533165  0.73622882    -0.16500
C1453       C  0.78682454  0.68319375  0.81643864    -0.16500
C1454       C  0.80518580  0.57168845  0.73470411    -0.16500
H1455       H  0.80833607  0.77999687  0.63703039     0.16400
H1456       H  0.78793263  0.83746086  0.68029858     0.16400
H1457       H  0.83915805  0.54673787  0.79367740     0.16400
H1458       H  0.83251599  0.60845304  0.83710902     0.16400
H1459       H  0.77627005  0.60441829  0.63180947     0.14700
H1460       H  0.78168289  0.54090066  0.67366040     0.14700
H1461       H  0.72011490  0.81127775  0.79466378     0.14700
H1462       H  0.73741489  0.75230936  0.83827406     0.14700
H1463       H  0.76882448  0.70753554  0.71613599     0.27900
H1464       H  0.77451838  0.65308514  0.75466167     0.27900
N1465       N  0.96762616  0.27737312  0.54292368    -0.34800
N1466       N  0.95492441  0.27589319  0.97590945    -0.55400
N1467       N  0.93818880  0.37270375  0.96844320    -0.34800
N1468       N  0.95849604  0.37334388  0.53995549    -0.55400
C1469       C  0.98304288  0.23662931  0.53791610     0.28700
C1470       C  0.97590248  0.28886064  0.57298876     0.28700
C1471       C  0.94341684  0.35904703  0.93840469     0.28700
C1472       C  0.94481504  0.41722990  0.96914139     0.28700
C1473       C  0.95378812  0.23282756  0.98559132     0.37400
C1474       C  0.93860757  0.27743119  0.94697782     0.37400
C1475       C  0.95215458  0.36658934  0.57095569     0.37400
C1476       C  0.94787475  0.41582325  0.53374065     0.37400
C1477       C  0.00154045  0.22228390  0.56509784    -0.20100
C1478       C  0.99718558  0.25528916  0.58712484    -0.20100
C1479       C  0.95385005  0.39509100  0.92015968    -0.20100
C1480       C  0.95368171  0.43184833  0.93915550    -0.20100
C1481       C  0.93583163  0.20727501  0.96297204    -0.21200
C1482       C  0.92664515  0.23538913  0.93841599    -0.21200
C1483       C  0.93701766  0.40471469  0.58414874    -0.21200
C1484       C  0.93443455  0.43578260  0.56066918    -0.21200
C1485       C  0.97042832  0.21650517  0.01400100    -0.16500
C1486       C  0.96344123  0.32821641  0.58810002    -0.16500
C1487       C  0.94353296  0.44514062  0.99599217    -0.16500
C1488       C  0.93821023  0.31513131  0.92687742    -0.16500
H1489       H  0.01669048  0.19125520  0.56871532     0.16400
H1490       H  0.00864414  0.25469106  0.61077377     0.16400
H1491       H  0.96263858  0.39461298  0.89599296     0.16400
H1492       H  0.96103929  0.46514680  0.93179049     0.16400
H1493       H  0.92979031  0.17209601  0.96393686     0.14700
H1494       H  0.91279559  0.22596592  0.91667143     0.14700
H1495       H  0.92981158  0.41050814  0.60834385     0.14700
H1496       H  0.92469452  0.46957514  0.56341523     0.14700
H1497       H  0.94897845  0.29422307  0.52784573     0.27900
H1498       H  0.92790774  0.35321979  0.98677700     0.27900
N1499       N  0.94115292  0.27448203  0.79418157    -0.34800
N1500       N  0.94987130  0.26475810  0.72691631    -0.55400
N1501       N  0.93984598  0.36109511  0.71994558    -0.34800
N1502       N  0.92380473  0.36951520  0.78634934    -0.55400
C1503       C  0.94167323  0.22960751  0.79078804     0.28700
C1504       C  0.92394301  0.28373036  0.82181951     0.28700
C1505       C  0.93322653  0.34671658  0.69034055     0.28700
C1506       C  0.92593399  0.40294821  0.72174480     0.28700
C1507       C  0.96793713  0.22746028  0.73715440     0.37400
C1508       C  0.96156675  0.27207725  0.69713823     0.37400
C1509       C  0.92453101  0.36655136  0.81814461     0.37400
C1510       C  0.92960782  0.41293580  0.77897400     0.37400
C1511       C  0.92388332  0.21016817  0.81632250    -0.20100
C1512       C  0.91246528  0.24425230  0.83572820    -0.20100
C1513       C  0.91340161  0.37926160  0.67366203    -0.20100
C1514       C  0.90972252  0.41534881  0.69327377    -0.20100
C1515       C  0.99212948  0.21209088  0.71398824    -0.21200
C1516       C  0.98727598  0.23966310  0.68837699    -0.21200
C1517       C  0.92926465  0.40859970  0.83075769    -0.21200
C1518       C  0.93363928  0.43752864  0.80604855    -0.21200
C1519       C  0.96026795  0.20611909  0.76630427    -0.16500
C1520       C  0.92153771  0.32650087  0.83591024    -0.16500
C1521       C  0.92962765  0.43068576  0.74805924    -0.16500
C1522       C  0.94832356  0.30699670  0.67759360    -0.16500
H1523       H  0.91969454  0.17506364  0.82064385     0.16400
H1524       H  0.89785989  0.24032647  0.85782659     0.16400
H1525       H  0.90274513  0.37717257  0.64986255     0.16400
H1526       H  0.89603941  0.44671022  0.68754731     0.16400
H1527       H  0.01157556  0.18419048  0.71523815     0.14700
H1528       H  0.00185527  0.23694500  0.66621514     0.14700
H1529       H  0.92999016  0.41797507  0.85511503     0.14700
H1530       H  0.93940106  0.47255259  0.80792545     0.14700
H1531       H  0.95600749  0.29705306  0.78038838     0.27900
H1532       H  0.95714844  0.34564280  0.73681064     0.27900
N1533       N  0.79395039  0.25434632  0.53475453    -0.34800
N1534       N  0.78751778  0.25558110  0.96723945    -0.55400
N1535       N  0.79805418  0.35223905  0.96664898    -0.34800
N1536       N  0.80394305  0.35150921  0.53537171    -0.55400
C1537       C  0.79685700  0.20985946  0.53011182     0.28700
C1538       C  0.79821634  0.26163620  0.56598585     0.28700
C1539       C  0.80966119  0.34189111  0.93723706     0.28700
C1540       C  0.80935820  0.39449010  0.97271055     0.28700
C1541       C  0.77878372  0.21214589  0.97182862     0.37400
C1542       C  0.79091410  0.26180367  0.93580796     0.37400
C1543       C  0.79177984  0.34427092  0.56506123     0.37400
C1544       C  0.79674740  0.39489652  0.52865612     0.37400
C1545       C  0.80284523  0.18882083  0.55887130    -0.20100
C1546       C  0.80379896  0.22132802  0.58131910    -0.20100
C1547       C  0.82916103  0.37760391  0.92480731    -0.20100
C1548       C  0.82867357  0.41076903  0.94685263    -0.20100
C1549       C  0.77757021  0.19071546  0.94305495    -0.21200
C1550       C  0.78466671  0.22203586  0.92043341    -0.21200
C1551       C  0.77713558  0.38324342  0.57727050    -0.21200
C1552       C  0.78045483  0.41536676  0.55434446    -0.21200
C1553       C  0.79147659  0.18736915  0.50112198    -0.16500
C1554       C  0.79391522  0.30302077  0.58137831    -0.16500
C1555       C  0.80669730  0.41652701  0.50022926    -0.16500
C1556       C  0.80189411  0.30190839  0.92071084    -0.16500
H1557       H  0.80539840  0.15358008  0.56361223     0.16400
H1558       H  0.80700672  0.21546592  0.60623238     0.16400
H1559       H  0.84236110  0.37974581  0.90210754     0.16400
H1560       H  0.84149659  0.44280995  0.94366952     0.16400
H1561       H  0.77377333  0.15580132  0.93836345     0.14700
H1562       H  0.78647963  0.21542256  0.89556877     0.14700
H1563       H  0.76395180  0.38759410  0.59984449     0.14700
H1564       H  0.77145602  0.44966353  0.55630685     0.14700
H1565       H  0.78510996  0.27783113  0.51827941     0.27900
H1566       H  0.77937039  0.33393257  0.98015154     0.27900
N1567       N  0.78864054  0.27769388  0.71648341    -0.34800
N1568       N  0.80592186  0.37495544  0.71681516    -0.55400
N1569       N  0.79709753  0.37539197  0.78372221    -0.34800
N1570       N  0.78833092  0.27782049  0.78458368    -0.55400
C1571       C  0.80390708  0.28399446  0.68766564     0.28700
C1572       C  0.78973976  0.23336066  0.72285391     0.28700
C1573       C  0.80733158  0.41821642  0.77847418     0.28700
C1574       C  0.80368576  0.36640134  0.81453019     0.28700
C1575       C  0.80214206  0.36704263  0.68564233     0.37400
C1576       C  0.80011460  0.41930264  0.72069760     0.37400
C1577       C  0.77363532  0.23681877  0.77939338     0.37400
C1578       C  0.78188379  0.28743159  0.81521293     0.37400
C1579       C  0.81531652  0.24327267  0.67584956    -0.20100
C1580       C  0.80610712  0.21133415  0.69784293    -0.20100
C1581       C  0.82080424  0.43651200  0.80613822    -0.20100
C1582       C  0.81873136  0.40385090  0.82879120    -0.20100
C1583       C  0.79486367  0.40645732  0.66975709    -0.21200
C1584       C  0.79247508  0.43898233  0.69194374    -0.21200
C1585       C  0.75791199  0.22050918  0.80688203    -0.21200
C1586       C  0.76304172  0.25246463  0.82940102    -0.21200
C1587       C  0.80553143  0.32508447  0.67098126    -0.16500
C1588       C  0.77638911  0.21272947  0.75080499    -0.16500
C1589       C  0.79310580  0.32706130  0.83076842    -0.16500
C1590       C  0.80257532  0.44198913  0.74986503    -0.16500
H1591       H  0.82957579  0.23730387  0.65391464     0.16400
H1592       H  0.81192233  0.17611552  0.69595111     0.16400
H1593       H  0.83097342  0.46996636  0.80969636     0.16400
H1594       H  0.82661064  0.40780131  0.85317722     0.16400
H1595       H  0.79059640  0.41138424  0.64486460     0.14700
H1596       H  0.78494909  0.47284272  0.68720452     0.14700
H1597       H  0.74379005  0.18904688  0.81041336     0.14700
H1598       H  0.75307272  0.25055661  0.85331063     0.14700
H1599       H  0.77490589  0.30181009  0.72972734     0.27900
H1600       H  0.78192414  0.35547857  0.76823648     0.27900
C1601       C  0.80742890  0.30060036  0.88570598    -0.14700
C1602       C  0.79033362  0.32978575  0.86589419    -0.29800
H1603       H  0.82359195  0.27324181  0.87586928     0.14400
H1604       H  0.77438548  0.35740776  0.87561926     0.14900
C1605       C  0.78899638  0.30189429  0.61629691    -0.14700
C1606       C  0.81114704  0.32526557  0.63609518    -0.29800
H1607       H  0.76785779  0.27954818  0.62590881     0.14400
H1608       H  0.83207578  0.34781722  0.62637672     0.14900
C1609       C  0.93762329  0.30666929  0.89200957    -0.14700
C1610       C  0.91689856  0.33061556  0.87094359    -0.29800
H1611       H  0.47704409  0.27933882  0.89145049     0.14400
H1612       H  0.89912284  0.35732481  0.87955293     0.14900
C1613       C  0.96467484  0.33178968  0.62325286    -0.14700
C1614       C  0.95027971  0.30080818  0.64273021    -0.29800
H1615       H  0.49026491  0.35298124  0.64294049     0.14400
H1616       H  0.94024270  0.26959721  0.63312048     0.14900
C1617       C  0.81342600  0.52243423  0.73296898    -0.14700
C1618       C  0.79729062  0.49189092  0.75209123    -0.29800
H1619       H  0.83186771  0.51114871  0.71429510     0.14400
H1620       H  0.77954131  0.50387538  0.77103127     0.14900
C1621       C  0.82702311  0.49590137  0.49245824    -0.14700
C1622       C  0.79956335  0.46562985  0.49723607    -0.29800
H1623       H  0.85633944  0.48512741  0.49047479     0.14400
H1624       H  0.76580010  0.48246138  0.00301887     0.14900
C1625       C  0.77871473  0.65335395  0.87131112    -0.19100
C1626       C  0.79055063  0.68564536  0.85156903    -0.29800
H1627       H  0.76639786  0.62349401  0.86138341     0.14400
H1628       H  0.80241230  0.71585422  0.86137758     0.14900
C1629       C  0.82131147  0.66735751  0.60321131    -0.14700
C1630       C  0.79777564  0.69226781  0.62086524    -0.29800
H1631       H  0.84105386  0.64477692  0.61497077     0.14400
H1632       H  0.77795681  0.71491998  0.60924291     0.14900
C1633       C  0.93790244  0.47889618  0.74238170    -0.14700
C1634       C  0.91480081  0.51226369  0.75131400    -0.29800
H1635       H  0.47382688  0.48406295  0.74303801     0.14400
H1636       H  0.88839187  0.50370688  0.76278928     0.14900
C1637       C  0.94313546  0.49499127  0.99075212    -0.14700
C1638       C  0.93797059  0.51701278  0.48942825    -0.29800
H1639       H  0.48270756  0.50051891  0.99296130     0.14400
H1640       H  0.91995586  0.50448597  0.47064862     0.14900
C1641       C  0.93875668  0.69285094  0.88894860    -0.14700
C1642       C  0.95546054  0.66342912  0.86957728    -0.29800
H1643       H  0.92633326  0.72289335  0.87883644     0.14400
H1644       H  0.49296652  0.66559379  0.88004368     0.14900
C1645       C  0.96744532  0.67473784  0.63794677    -0.14700
C1646       C  0.94138515  0.66962982  0.61477335    -0.29800
H1647       H  0.49216314  0.67604681  0.63337665     0.14400
H1648       H  0.91232278  0.66233943  0.62130456     0.14900
C1649       C  0.75193114  0.13869897  0.72966094    -0.14700
C1650       C  0.76908192  0.16322031  0.75230136    -0.29800
H1651       H  0.74374571  0.15416127  0.70748587     0.14400
H1652       H  0.77716308  0.14627006  0.77398267     0.14900
C1653       C  0.74925528  0.87331400  0.75557400    -0.14700
C1654       C  0.74447129  0.84205148  0.73347423    -0.29800
H1655       H  0.76262642  0.86459500  0.77784847     0.14400
H1656       H  0.73237621  0.85230092  0.71096891     0.14900
C1657       C  0.78765819  0.13772009  0.50255120    -0.14700
C1658       C  0.75861952  0.11526851  0.48941247    -0.29800
H1659       H  0.80889091  0.11905082  0.51590202     0.14400
H1660       H  0.72511964  0.13408470  0.97156678     0.14900
C1661       C  0.76572305  0.84761388  0.50356607    -0.14700
C1662       C  0.78219270  0.82183926  0.48159944    -0.29800
H1663       H  0.74843519  0.83484778  0.02492241     0.14400
H1664       H  0.79036401  0.83714617  0.45949137     0.14900
C1665       C  0.97277791  0.12650786  0.75002659    -0.14700
C1666       C  0.97196030  0.15828667  0.77238131    -0.29800
H1667       H  0.96362922  0.13468366  0.72628252     0.14400
H1668       H  0.49103028  0.14389165  0.80408191     0.14900
C1669       C  0.99345602  0.83076906  0.75465901    -0.14700
C1670       C  0.98685900  0.86142218  0.77716244    -0.29800
H1671       H  0.49731023  0.84199923  0.73011763     0.14400
H1672       H  0.97394925  0.85134154  0.79909987     0.14900
C1673       C  0.87625391  0.99385843  0.76509347    -0.14700
C1674       C  0.85472674  0.99635718  0.73894318    -0.29800
H1675       H  0.86287652  0.99540030  0.78797536     0.14400
H1676       H  0.86798716  0.99491629  0.71601114     0.14900
C1677       C  0.60447552  0.00013209  0.76835263    -0.14700
C1678       C  0.62562634  0.00382015  0.74221494    -0.29800
H1679       H  0.61843693  0.00042036  0.79121665     0.14400
H1680       H  0.61157383  0.00318609  0.71938480     0.14900
C1681       C  0.97672057  0.16713577  0.01947854    -0.14700
C1682       C  0.98935202  0.13816873  0.99761195    -0.29800
H1683       H  0.97153129  0.15441070  0.04298917     0.14400
H1684       H  0.51588290  0.14564783  0.48053863     0.14900
C1685       C  0.98094170  0.84140223  0.50989872    -0.14700
C1686       C  0.00064815  0.86625266  0.48922479    -0.29800
H1687       H  0.96930010  0.85757209  0.53045982     0.14400
H1688       H  0.49236681  0.84356679  0.04418450     0.14900
C1689       C  0.87039141  0.98903999  0.50363585    -0.14700
C1690       C  0.89325970  0.99608634  0.47899684    -0.29800
H1691       H  0.87241615  0.99089336  0.96791827     0.14400
H1692       H  0.88170458  0.99823982  0.45527349     0.14900
C1693       C  0.61959524  0.98657513  0.51063026    -0.14700
C1694       C  0.64354710  0.98161986  0.48647014    -0.29800
H1695       H  0.63071252  0.98862413  0.53447442     0.14400
H1696       H  0.61727288  0.97501387  0.97153445     0.14900
loop_ 
_geom_bond_atom_site_label_1 
_geom_bond_atom_site_label_2 
_geom_bond_distance 
_geom_bond_site_symmetry_2 
_ccdc_geom_bond_type 
O1            V9   1.905       .  S
O1          C435   1.267   1_545  A
O2          V857   1.899       .  S
O2          C436   1.264       .  A
O3            V9   1.907       .  S
O3          C861   1.265       .  A
O4          V857   1.909       .  S
O4          C438   1.265       .  A
O5          V858   1.917   1_565  S
O5          C862   1.267       .  A
O6           V10   1.923   1_545  S
O6          C437   1.269       .  A
O7           V10   1.897       .  S
O7           C12   1.262       .  A
O8          V858   1.905   1_455  S
O8           C11   1.265       .  A
V9          O850   1.906   1_455  S
V9          O852   1.904   1_545  S
V9         V1282   2.086       .  T
V10         O853   1.918       .  S
V10         O856   1.906       .  S
V10        V1281   2.084   1_554  T
C11         O425   1.268   1_544  A
C11         C421   1.487       .  S
C12         O426   1.266   1_554  A
C12         C418   1.473       .  S
C13         O851   1.265       .  A
C13         O430   1.269       .  A
C13         C410   1.491       .  S
C14         O428   1.264   1_554  A
C14         O853   1.269       .  A
C14         C414   1.488       .  S
O15          V23   1.911   1_455  S
O15          C25   1.268       .  A
O16         V871   1.906       .  S
O16          C26   1.269       .  A
O17          V23   1.898   1_565  S
O17         C875   1.262   1_655  A
O18         V871   1.899       .  S
O18          C28   1.261       .  A
O19         V872   1.920       .  S
O19         C876   1.271   1_455  A
O20          V24   1.929       .  S
O20          C27   1.272       .  A
O21          V24   1.880   1_545  S
O21          C26   1.256       .  A
O22         V872   1.890       .  S
O22          C25   1.261       .  A
V23         O864   1.906       .  S
V23         O866   1.902       .  S
V23         V872   2.086   1_655  T
V24         O867   1.919   1_565  S
V24         O870   1.891       .  S
V24         V871   2.086   1_565  T
C25         C405   1.476       .  S
C26         C401   1.464       .  S
C27         O865   1.263       .  A
C27         C398   1.494       .  S
C28         O867   1.271       .  A
C28         C393   1.486       .  S
O29          V37   1.918   1_545  S
O29         C463   1.269       .  A
O30          V37   1.918       .  S
O30         C464   1.269       .  A
O31          V37   1.897       .  S
O31         C465   1.262       .  A
O32          V37   1.882       .  S
O32         C466   1.260       .  A
O33          V38   1.898       .  S
O33          C42   1.265   1_554  A
O34          V38   1.911       .  S
O34          C41   1.267   1_554  A
O35          V38   1.915       .  S
O35          C40   1.268   1_554  A
O36          V38   1.914   1_545  S
O36          C39   1.267   1_554  A
V37         V462   2.087       .  T
V38         V461   2.084   1_554  T
C39         O453   1.269       .  A
C39         C386   1.494       .  S
C40         O454   1.268       .  A
C40         C389   1.496       .  S
C41         O455   1.266       .  A
C41         C422   1.489       .  S
C42         O456   1.263       .  A
C42         C417   1.472       .  S
O43          V51   1.898   1_565  S
O43          C53   1.262       .  A
O44          V51   1.898       .  S
O44          C54   1.261       .  A
O45          V51   1.909       .  S
O45          C55   1.270       .  A
O46          V51   1.911       .  S
O46          C56   1.268       .  A
O47          V52   1.889       .  S
O47          C56   1.261       .  A
O48          V52   1.876       .  S
O48          C55   1.255       .  A
O49          V52   1.924       .  S
O49          C54   1.272       .  A
O50          V52   1.926   1_565  S
O50          C53   1.272       .  A
V51          V52   2.087       .  T
C53         C381   1.492       .  S
C54         C377   1.486       .  S
C55         C402   1.463       .  S
C56         C406   1.476       .  S
N57          C62   1.358       .  A
N57          C61   1.356       .  A
N57          H89   1.041       .  S
N58          C65   1.353       .  A
N58          C66   1.356       .  A
N59          C64   1.356       .  A
N59          C63   1.358       .  A
N59          H90   1.035       .  S
N60          C67   1.353       .  A
N60          C68   1.351       .  A
C61          C69   1.388       .  A
C61          C77   1.419       .  A
C62          C70   1.386       .  A
C62         C502   1.421       .  A
C63          C71   1.388       .  A
C63          C80   1.424       .  A
C64          C79   1.424       .  A
C64          C72   1.386       .  A
C65          C77   1.418       .  A
C65          C73   1.387       .  A
C66          C74   1.385       .  A
C66         C504   1.416       .  A
C67          C75   1.386       .  A
C67          C78   1.419       .  A
C68          C76   1.386       .  A
C68          C79   1.417       .  A
C69          C70   1.379       .  A
C69          H81   1.082       .  S
C70          H82   1.082       .  S
C71          C72   1.374       .  A
C71          H83   1.080       .  S
C72          H84   1.082       .  S
C73          C74   1.371       .  A
C73          H85   1.079       .  S
C74          H86   1.081       .  S
C75          C76   1.372       .  A
C75          H87   1.082       .  S
C76          H88   1.080       .  S
C77         C369   1.492       .  S
C78         C413   1.508       .  S
C78         C486   1.428   1_554  A
C79         C374   1.494       .  S
C80         C366   1.502       .  S
C80         C490   1.422   1_554  A
N91          C96   1.357       .  A
N91          C95   1.360       .  A
N91         H123   1.035       .  S
N92          C99   1.359       .  A
N92         C100   1.355       .  A
N93          C98   1.357       .  A
N93          C97   1.354       .  A
N93         H124   1.038       .  S
N94         C101   1.353       .  A
N94         C102   1.358       .  A
C95         C103   1.386       .  A
C95         C111   1.426       .  A
C96         C112   1.427       .  A
C96         C104   1.388       .  A
C97         C105   1.387       .  A
C97         C114   1.419       .  A
C98         C113   1.419       .  A
C98         C106   1.386       .  A
C99         C111   1.427       .  A
C99         C107   1.387       .  A
C100        C114   1.418       .  A
C100        C108   1.385       .  A
C101        C109   1.388       .  A
C101        C112   1.422       .  A
C102        C110   1.385       .  A
C102        C113   1.421       .  A
C103        C104   1.375       .  A
C103        H115   1.082       .  S
C104        H116   1.077       .  S
C105        C106   1.374       .  A
C105        H117   1.079       .  S
C106        H118   1.082       .  S
C107        C108   1.375       .  A
C107        H119   1.081       .  S
C108        H120   1.082       .  S
C109        C110   1.373       .  A
C109        H121   1.081       .  S
C110        H122   1.079       .  S
C111        C397   1.518       .  S
C112        C373   1.494       .  S
C113        C362   1.503       .  S
C114        C370   1.492       .  S
N125        C130   1.357       .  A
N125        C129   1.359       .  A
N125        H157   1.042       .  S
N126        C133   1.357       .  A
N126        C134   1.355       .  A
N127        C132   1.362       .  A
N127        C131   1.360       .  A
N127        H158   1.036   1_554  S
N128        C135   1.359       .  A
N128        C136   1.360       .  A
C129        C137   1.385       .  A
C129        C569   1.419       .  A
C130        C146   1.424       .  A
C130        C138   1.387       .  A
C131        C139   1.389       .  A
C131        C148   1.432       .  A
C132        C147   1.427   1_554  A
C132        C140   1.385       .  A
C133        C145   1.421   1_554  A
C133        C141   1.385       .  A
C134        C148   1.421       .  A
C134        C142   1.386       .  A
C135        C143   1.387       .  A
C135        C146   1.427       .  A
C136        C144   1.385       .  A
C136        C571   1.425       .  A
C137        C138   1.375       .  A
C137        H149   1.082       .  S
C138        H150   1.079       .  S
C139        C140   1.378       .  A
C139        H151   1.079       .  S
C140        H152   1.081       .  S
C141        C142   1.375       .  A
C141        H153   1.082       .  S
C142        H154   1.081       .  S
C143        C144   1.377       .  A
C143        H155   1.081       .  S
C144        H156   1.080       .  S
C145        C390   1.513       .  S
C145        C553   1.421       .  A
C146        C353   1.514       .  S
C147        C349   1.509       .  S
C147        C560   1.420       .  A
C148        C357   1.511       .  S
N159        C164   1.358       .  A
N159        C163   1.360       .  A
N159        H191   1.038       .  S
N160        C167   1.356       .  A
N160        C168   1.356       .  A
N161        C166   1.357       .  A
N161        C165   1.356       .  A
N161        H192   1.041       .  S
N162        C169   1.358       .  A
N162        C170   1.357       .  A
C163        C171   1.386       .  A
C163        C179   1.425       .  A
C164        C180   1.431       .  A
C164        C172   1.391       .  A
C165        C173   1.381       .  A
C165        C182   1.420       .  A
C166        C181   1.422       .  A
C166        C174   1.385       .  A
C167        C179   1.416       .  A
C167        C175   1.383       .  A
C168        C182   1.414       .  A
C168        C176   1.383       .  A
C169        C177   1.387       .  A
C169        C180   1.425       .  A
C170        C178   1.383       .  A
C170        C181   1.420       .  A
C171        C172   1.382       .  A
C171        H183   1.082       .  S
C172        H184   1.082       .  S
C173        C174   1.378       .  A
C173        H185   1.078       .  S
C174        H186   1.080       .  S
C175        C176   1.367       .  A
C175        H187   1.080       .  S
C176        H188   1.075       .  S
C177        C178   1.375       .  A
C177        H189   1.081       .  S
C178        H190   1.080       .  S
C179        C358   1.511       .  S
C180        C382   1.515       .  S
C181        C354   1.510       .  S
C182        C345   1.508       .  S
N193        C198   1.356       .  A
N193        C197   1.359       .  A
N193        H225   1.041       .  S
N194        C201   1.359       .  A
N194        C202   1.357       .  A
N195        C200   1.361       .  A
N195        C199   1.359       .  A
N195        H226   1.041       .  S
N196        C203   1.354       .  A
N196        C204   1.357       .  A
C197        C205   1.385       .  A
C197        C637   1.419       .  A
C198        C214   1.423       .  A
C198        C206   1.386       .  A
C199        C207   1.386       .  A
C199        C216   1.426       .  A
C200        C215   1.426       .  A
C200        C208   1.385       .  A
C201        C213   1.424       .  A
C201        C209   1.386       .  A
C202        C216   1.420       .  A
C202        C210   1.386       .  A
C203        C211   1.387       .  A
C203        C214   1.418       .  A
C204        C212   1.385       .  A
C204        C639   1.419       .  A
C205        C206   1.375       .  A
C205        H217   1.082       .  S
C206        H218   1.078       .  S
C207        C208   1.378       .  A
C207        H219   1.080       .  S
C208        H220   1.081       .  S
C209        C210   1.373       .  A
C209        H221   1.082       .  S
C210        H222   1.081       .  S
C211        C212   1.369       .  A
C211        H223   1.081       .  S
C212        H224   1.078       .  S
C213        C409   1.511       .  S
C213        C621   1.421       .  A
C214        C341   1.499       .  S
C215        C365   1.510       .  S
C215        C628   1.417       .  A
C216        C337   1.509       .  S
N227        C232   1.359       .  A
N227        C231   1.361       .  A
N227        H259   1.040       .  S
N228        C235   1.352       .  A
N228        C236   1.351       .  A
N229        C234   1.350       .  A
N229        C233   1.355       .  A
N229        H260   1.040       .  S
N230        C237   1.356       .  A
N230        C238   1.359       .  A
C231        C239   1.386       .  A
C231        C247   1.427       .  A
C232        C248   1.428       .  A
C232        C240   1.387       .  A
C233        C241   1.387       .  A
C233        C250   1.416       .  A
C234        C249   1.409       .  A
C234        C242   1.385       .  A
C235        C247   1.415       .  A
C235        C243   1.387       .  A
C236        C250   1.406       .  A
C236        C244   1.382       .  A
C237        C245   1.389       .  A
C237        C248   1.425       .  A
C238        C246   1.384       .  A
C238        C249   1.420       .  A
C239        C240   1.380       .  A
C239        H251   1.082       .  S
C240        H252   1.080       .  S
C241        C242   1.380       .  A
C241        H253   1.081       .  S
C242        H254   1.082       .  S
C243        C244   1.372       .  A
C243        H255   1.082       .  S
C244        H256   1.079       .  S
C245        C246   1.376       .  A
C245        H257   1.080       .  S
C246        H258   1.082       .  S
C247        C394   1.512       .  S
C248        C338   1.512       .  S
C249        C361   1.496       .  S
C250        C342   1.491       .  S
N261        C266   1.361       .  A
N261        C265   1.362       .  A
N261        H293   1.040       .  S
N262        C269   1.356       .  A
N262        C270   1.355       .  A
N263        C268   1.358       .  A
N263        C267   1.354       .  A
N263        H294   1.037       .  S
N264        C271   1.358       .  A
N264        C272   1.360       .  A
C265        C273   1.389       .  A
C265        C281   1.433   1_554  A
C266        C282   1.429       .  A
C266        C274   1.386       .  A
C267        C275   1.384       .  A
C267        C284   1.418       .  A
C268        C276   1.388       .  A
C268        C707   1.422       .  A
C269        C277   1.386       .  A
C269        C705   1.418       .  A
C270        C284   1.419       .  A
C270        C278   1.387       .  A
C271        C279   1.384       .  A
C271        C282   1.425       .  A
C272        C280   1.385       .  A
C272        C283   1.423   1_554  A
C273        C274   1.374       .  A
C273        H285   1.081       .  S
C274        H286   1.080       .  S
C275        C276   1.373       .  A
C275        H287   1.081       .  S
C276        H288   1.075       .  S
C277        C278   1.368       .  A
C277        H289   1.082       .  S
C278        H290   1.079       .  S
C279        C280   1.372       .  A
C279        H291   1.078       .  S
C280        H292   1.081       .  S
C281        C385   1.518       .  S
C281        C693   1.430       .  A
C282        C333   1.516       .  S
C283        C350   1.513       .  S
C283        C692   1.425       .  A
C284        C329   1.496       .  S
N295        C300   1.360       .  A
N295        C299   1.358       .  A
N295        H327   1.041       .  S
N296        C303   1.358       .  A
N296        C304   1.361       .  A
N297        C302   1.354       .  A
N297        C301   1.352       .  A
N297        H328   1.038       .  S
N298        C305   1.353       .  A
N298        C306   1.353       .  A
C299        C307   1.387       .  A
C299        C315   1.426       .  A
C300        C316   1.425       .  A
C300        C308   1.385       .  A
C301        C309   1.388       .  A
C301        C318   1.416       .  A
C302        C317   1.414       .  A
C302        C310   1.387       .  A
C303        C315   1.423       .  A
C303        C311   1.384       .  A
C304        C318   1.427       .  A
C304        C312   1.382       .  A
C305        C313   1.386       .  A
C305        C316   1.411       .  A
C306        C314   1.384       .  A
C306        C317   1.414       .  A
C307        C308   1.381       .  A
C307        H319   1.080       .  S
C308        H320   1.082       .  S
C309        C310   1.377       .  A
C309        H321   1.080       .  S
C310        H322   1.082       .  S
C311        C312   1.373       .  A
C311        H323   1.079       .  S
C312        H324   1.074       .  S
C313        C314   1.369       .  A
C313        H325   1.082       .  S
C314        H326   1.081       .  S
C315        C334   1.511       .  S
C316        C378   1.505       .  S
C317        C330   1.492       .  S
C318        C346   1.508       .  S
C329        C330   1.348       .  D
C329        H331   1.087       .  S
C330        H332   1.086       .  S
C333        C334   1.356       .  D
C333        H335   1.086       .  S
C334        H336   1.086       .  S
C337        C338   1.353       .  D
C337       H1187   1.086       .  S
C338        H340   1.085       .  S
H339       C1185   1.086       .  S
C341        C342   1.344       .  D
C341       H1191   1.086       .  S
C342        H344   1.086       .  S
H343       C1189   1.085       .  S
C345        C346   1.350       .  D
C345        H347   1.086       .  S
C346        H348   1.087       .  S
C349        C350   1.353       .  D
C349        H351   1.084       .  S
C350        H776   1.086       .  S
H352        C774   1.086       .  S
C353        C354   1.358       .  D
C353        H355   1.085       .  S
C354        H356   1.086       .  S
C357        C358   1.360       .  D
C357        H359   1.085       .  S
C358        H360   1.085       .  S
C361        C362   1.345       .  D
C361       H1211   1.086       .  S
C362        H364   1.084       .  S
H363       C1209   1.086       .  S
C365        C790   1.348       .  D
C365       H1215   1.087       .  S
C366        C789   1.350       .  D
C366        H368   1.086       .  S
H367       C1213   1.087       .  S
C369        C370   1.344       .  D
C369        H371   1.087       .  S
C370       H1220   1.086       .  S
H372       C1218   1.087   1_455  S
C373        C374   1.346       .  D
C373       H1223   1.087       .  S
C374        H376   1.086       .  S
H375       C1221   1.087       .  S
C377        C378   1.344       .  D
C377        H379   1.086       .  S
C378        H380   1.088       .  S
C381        C382   1.358       .  D
C381        H383   1.084       .  S
C382        H384   1.086       .  S
C385        C386   1.356       .  D
C385        H387   1.085   1_556  S
C386        H812   1.085       .  S
H388        C810   1.086       .  S
C389        C390   1.354       .  D
C389        H815   1.086   1_556  S
C390        H392   1.087       .  S
H391        C813   1.086       .  S
C393        C394   1.358       .  D
C393        H395   1.083       .  S
C394       H1244   1.086       .  S
H396       C1242   1.086       .  S
C397        C398   1.350       .  D
C397       H1247   1.086       .  S
C398        H400   1.085       .  S
H399       C1245   1.087       .  S
C401        C402   1.332       .  D
C401        H403   1.087       .  S
C402        H404   1.087       .  S
C405        C406   1.350       .  D
C405        H407   1.086       .  S
C406        H408   1.086       .  S
C409        C410   1.352       .  D
C409        H411   1.087       .  S
C410       H1684   1.086       .  S
H412       C1682   1.085       .  S
C413        C414   1.355       .  D
C413        H415   1.086   1_554  S
C414       H1688   1.086       .  S
H416       C1686   1.086       .  S
C417        C418   1.342   1_556  D
C417        H843   1.087       .  S
C418        H420   1.087       .  S
H419        C841   1.087       .  S
C421        C422   1.348   1_544  D
C421        H423   1.086       .  S
C422        H848   1.086       .  S
H424        C846   1.087       .  S
O425        V433   1.916   1_455  S
O426       V1281   1.902       .  S
O427        V433   1.913   1_545  S
O427       C1285   1.267   1_556  A
O428       V1281   1.903       .  S
O429       V1282   1.923   1_565  S
O429       C1286   1.270       .  A
O430        V434   1.921   1_545  S
O431        V434   1.884       .  S
O431        C436   1.261       .  A
O432       V1282   1.899   1_565  S
O432        C435   1.263       .  A
V433       O1274   1.903   1_565  S
V433       O1276   1.906       .  S
V433        V858   2.085   1_566  T
V434       O1277   1.921       .  S
V434       O1280   1.903       .  S
V434        V857   2.087       .  T
C435        C845   1.478       .  S
C436        C842   1.465       .  S
C437       O1275   1.265   1_554  A
C437        C834   1.491       .  S
C438       O1277   1.270       .  A
C438        C838   1.494       .  S
O439        V447   1.909   1_445  S
O439        C449   1.266       .  A
O440       V1295   1.900       .  S
O440        C450   1.263       .  A
O441        V447   1.917       .  S
O441       C1299   1.268       .  A
O442       V1295   1.909   1_545  S
O442        C452   1.265       .  A
O443       V1296   1.905   1_545  S
O443       C1300   1.266       .  A
O444        V448   1.918       .  S
O444        C451   1.268       .  A
O445        V448   1.902       .  S
O445        C450   1.265       .  A
O446       V1296   1.918   1_455  S
O446        C449   1.268   1_565  A
V447       O1288   1.895       .  S
V447       O1290   1.918   1_565  S
V447       V1296   2.086       .  T
V448       O1291   1.903   1_565  S
V448       O1294   1.913       .  S
V448       V1295   2.086       .  T
C449        C829   1.492       .  S
C450        C825   1.474       .  S
C451       O1289   1.267       .  A
C451        C822   1.494       .  S
C452       O1291   1.265       .  A
C452        C817   1.480       .  S
O453        V461   1.919   1_545  S
O454        V461   1.919       .  S
O455        V461   1.909       .  S
O456        V461   1.899       .  S
O457        V462   1.904       .  S
O457        C466   1.265       .  A
O458        V462   1.905       .  S
O458        C465   1.266       .  A
O459        V462   1.904       .  S
O459        C464   1.264       .  A
O460        V462   1.901   1_545  S
O460        C463   1.263       .  A
C463        C810   1.484       .  S
C464        C813   1.487       .  S
C465        C846   1.476       .  S
C466        C841   1.466       .  S
O467        V475   1.913   1_565  S
O467        C477   1.268       .  A
O468        V475   1.918       .  S
O468        C478   1.268       .  A
O469        V475   1.901       .  S
O469        C479   1.263       .  A
O470        V475   1.907       .  S
O470        C480   1.265       .  A
O471        V476   1.918       .  S
O471        C480   1.269       .  A
O472        V476   1.899       .  S
O472        C479   1.265       .  A
O473        V476   1.917       .  S
O473        C478   1.268       .  A
O474        V476   1.906   1_565  S
O474        C477   1.265       .  A
V475        V476   2.086       .  T
C477        C805   1.486       .  S
C478        C801   1.500       .  S
C479        C826   1.474       .  S
C480        C830   1.492       .  S
N481        C486   1.361       .  A
N481        C485   1.356       .  A
N481        H513   1.038       .  S
N482        C489   1.354       .  A
N482        C490   1.356       .  A
N483        C488   1.357       .  A
N483        C487   1.359       .  A
N483        H514   1.041       .  S
N484        C491   1.359       .  A
N484        C492   1.357       .  A
C485        C493   1.386       .  A
C485        C501   1.422       .  A
C486        C494   1.389       .  A
C487        C495   1.384       .  A
C487        C504   1.424       .  A
C488        C503   1.424       .  A
C488        C496   1.390       .  A
C489        C501   1.421       .  A
C489        C497   1.385       .  A
C490        C498   1.385       .  A
C491        C499   1.384       .  A
C491        C502   1.421       .  A
C492        C500   1.388       .  A
C492        C503   1.426       .  A
C493        C494   1.376       .  A
C493        H505   1.080       .  S
C494        H506   1.082       .  S
C495        C496   1.378       .  A
C495        H507   1.081       .  S
C496        H508   1.082       .  S
C497        C498   1.371       .  A
C497        H509   1.074       .  S
C498        H510   1.082       .  S
C499        C500   1.370       .  A
C499        H511   1.082       .  S
C500        H512   1.076       .  S
C501        C793   1.495       .  S
C502        C837   1.513       .  S
C503        C798   1.501       .  S
C504        C790   1.508       .  S
N515        C520   1.354       .  A
N515        C519   1.359       .  A
N515        H547   1.047       .  S
N516        C523   1.356       .  A
N516        C524   1.353       .  A
N517        C522   1.357       .  A
N517        C521   1.356       .  A
N517        H548   1.043       .  S
N518        C525   1.352       .  A
N518        C526   1.355       .  A
C519        C527   1.387       .  A
C519        C535   1.422       .  A
C520        C536   1.417       .  A
C520        C528   1.385       .  A
C521        C529   1.385       .  A
C521        C538   1.422       .  A
C522        C537   1.421       .  A
C522        C530   1.386       .  A
C523        C535   1.420       .  A
C523        C531   1.385       .  A
C524        C538   1.417       .  A
C524        C532   1.386       .  A
C525        C533   1.386       .  A
C525        C536   1.415       .  A
C526        C534   1.388       .  A
C526        C537   1.421       .  A
C527        C528   1.377       .  A
C527        H539   1.082       .  S
C528        H540   1.080       .  S
C529        C530   1.373       .  A
C529        H541   1.074       .  S
C530        H542   1.082       .  S
C531        C532   1.377       .  A
C531        H543   1.082       .  S
C532        H544   1.081       .  S
C533        C534   1.377       .  A
C533        H545   1.082       .  S
C534        H546   1.081       .  S
C535        C821   1.516       .  S
C536        C797   1.492       .  S
C537        C786   1.501       .  S
C538        C794   1.498       .  S
N549        C554   1.358       .  A
N549        C553   1.360       .  A
N549        H581   1.040       .  S
N550        C557   1.355       .  A
N550        C558   1.353       .  A
N551        C556   1.357       .  A
N551        C555   1.355       .  A
N551        H582   1.040       .  S
N552        C559   1.355       .  A
N552        C560   1.356       .  A
C553        C561   1.386       .  A
C554        C570   1.423       .  A
C554        C562   1.385       .  A
C555        C563   1.388       .  A
C555        C572   1.422       .  A
C556        C571   1.420       .  A
C556        C564   1.386       .  A
C557        C569   1.419       .  A
C557        C565   1.387       .  A
C558        C572   1.418       .  A
C558        C566   1.386       .  A
C559        C567   1.386       .  A
C559        C570   1.419       .  A
C560        C568   1.385       .  A
C561        C562   1.377       .  A
C561        H573   1.082       .  S
C562        H574   1.078       .  S
C563        C564   1.373       .  A
C563        H575   1.079       .  S
C564        H576   1.082       .  S
C565        C566   1.374       .  A
C565        H577   1.082       .  S
C566        H578   1.082       .  S
C567        C568   1.373       .  A
C567        H579   1.080       .  S
C568        H580   1.078       .  S
C569        C814   1.506       .  S
C570        C777   1.507       .  S
C571        C773   1.505       .  S
C572        C781   1.496       .  S
N583        C588   1.355       .  A
N583        C587   1.355       .  A
N583        H615   1.038       .  S
N584        C591   1.354       .  A
N584        C592   1.355       .  A
N585        C590   1.358       .  A
N585        C589   1.359       .  A
N585        H616   1.040       .  S
N586        C593   1.359       .  A
N586        C594   1.355       .  A
C587        C595   1.386       .  A
C587        C603   1.414       .  A
C588        C604   1.418       .  A
C588        C596   1.388       .  A
C589        C597   1.381       .  A
C589        C606   1.423       .  A
C590        C605   1.426       .  A
C590        C598   1.386       .  A
C591        C603   1.414       .  A
C591        C599   1.382       .  A
C592        C606   1.416       .  A
C592        C600   1.385       .  A
C593        C601   1.385       .  A
C593        C604   1.423       .  A
C594        C602   1.385       .  A
C594        C605   1.420       .  A
C595        C596   1.375       .  A
C595        H607   1.082       .  S
C596        H608   1.082       .  S
C597        C598   1.379       .  A
C597        H609   1.078       .  S
C598        H610   1.079       .  S
C599        C600   1.369       .  A
C599        H611   1.080       .  S
C600        H612   1.075       .  S
C601        C602   1.373       .  A
C601        H613   1.081       .  S
C602        H614   1.078       .  S
C603        C782   1.496       .  S
C604        C806   1.509       .  S
C605        C778   1.506       .  S
C606        C769   1.510       .  S
N617        C622   1.356       .  A
N617        C621   1.358       .  A
N617        H649   1.039       .  S
N618        C625   1.358       .  A
N618        C626   1.354       .  A
N619        C624   1.359       .  A
N619        C623   1.355       .  A
N619        H650   1.041       .  S
N620        C627   1.356       .  A
N620        C628   1.357       .  A
C621        C629   1.387       .  A
C622        C638   1.421       .  A
C622        C630   1.386       .  A
C623        C631   1.386       .  A
C623        C640   1.420       .  A
C624        C639   1.420   1_556  A
C624        C632   1.387       .  A
C625        C637   1.422   1_556  A
C625        C633   1.386       .  A
C626        C640   1.417       .  A
C626        C634   1.386       .  A
C627        C635   1.387       .  A
C627        C638   1.418       .  A
C628        C636   1.386       .  A
C629        C630   1.377       .  A
C629        H641   1.082       .  S
C630        H642   1.080       .  S
C631        C632   1.375       .  A
C631        H643   1.081       .  S
C632        H644   1.082       .  S
C633        C634   1.373       .  A
C633        H645   1.081       .  S
C634        H646   1.080       .  S
C635        C636   1.365       .  A
C635        H647   1.079       .  S
C636        H648   1.080       .  S
C637        C833   1.512       .  S
C638        C765   1.498       .  S
C639        C789   1.502       .  S
C640        C761   1.496       .  S
N651        C656   1.355       .  A
N651        C655   1.358       .  A
N651        H683   1.040       .  S
N652        C659   1.351       .  A
N652        C660   1.350       .  A
N653        C658   1.351       .  A
N653        C657   1.354       .  A
N653        H684   1.040       .  S
N654        C661   1.354       .  A
N654        C662   1.357       .  A
C655        C663   1.386       .  A
C655        C671   1.420       .  A
C656        C672   1.421       .  A
C656        C664   1.387       .  A
C657        C665   1.388       .  A
C657        C674   1.418       .  A
C658        C673   1.408       .  A
C658        C666   1.384       .  A
C659        C671   1.416       .  A
C659        C667   1.387       .  A
C660        C674   1.407       .  A
C660        C668   1.383       .  A
C661        C669   1.388       .  A
C661        C672   1.420       .  A
C662        C670   1.384       .  A
C662        C673   1.417       .  A
C663        C664   1.378       .  A
C663        H675   1.082       .  S
C664        H676   1.081       .  S
C665        C666   1.380       .  A
C665        H677   1.080       .  S
C666        H678   1.083       .  S
C667        C668   1.373       .  A
C667        H679   1.082       .  S
C668        H680   1.080       .  S
C669        C670   1.375       .  A
C669        H681   1.080       .  S
C670        H682   1.081       .  S
C671        C818   1.506       .  S
C672        C762   1.500       .  S
C673        C785   1.494       .  S
C674        C766   1.492       .  S
N685        C690   1.359       .  A
N685        C689   1.361       .  A
N685        H717   1.037       .  S
N686        C693   1.361       .  A
N686        C694   1.358       .  A
N687        C692   1.361       .  A
N687        C691   1.357       .  A
N687        H718   1.042       .  S
N688        C695   1.358       .  A
N688        C696   1.361       .  A
C689        C697   1.386       .  A
C689        C705   1.427       .  A
C690        C706   1.426       .  A
C690        C698   1.388       .  A
C691        C699   1.386       .  A
C691        C708   1.427       .  A
C692        C700   1.385       .  A
C693        C701   1.387       .  A
C694        C708   1.427       .  A
C694        C702   1.387       .  A
C695        C703   1.384       .  A
C695        C706   1.426       .  A
C696        C704   1.386       .  A
C696        C707   1.426       .  A
C697        C698   1.376       .  A
C697        H709   1.081       .  S
C698        H710   1.080       .  S
C699        C700   1.376       .  A
C699        H711   1.080       .  S
C700        H712   1.075       .  S
C701        C702   1.371       .  A
C701        H713   1.080       .  S
C702        H714   1.081       .  S
C703        C704   1.376       .  A
C703        H715   1.078       .  S
C704        H716   1.082       .  S
C705        C809   1.508       .  S
C706        C757   1.513       .  S
C707        C774   1.513       .  S
C708        C753   1.509       .  S
N719        C724   1.361       .  A
N719        C723   1.359       .  A
N719        H751   1.041       .  S
N720        C727   1.357       .  A
N720        C728   1.361       .  A
N721        C726   1.355       .  A
N721        C725   1.355       .  A
N721        H752   1.039       .  S
N722        C729   1.357       .  A
N722        C730   1.358       .  A
C723        C731   1.386       .  A
C723        C739   1.427       .  A
C724        C740   1.429       .  A
C724        C732   1.387       .  A
C725        C733   1.386       .  A
C725        C742   1.415       .  A
C726        C741   1.419       .  A
C726        C734   1.388       .  A
C727        C739   1.421       .  A
C727        C735   1.384       .  A
C728        C742   1.424       .  A
C728        C736   1.381       .  A
C729        C737   1.388       .  A
C729        C740   1.424       .  A
C730        C738   1.385       .  A
C730        C741   1.422       .  A
C731        C732   1.382       .  A
C731        H743   1.081       .  S
C732        H744   1.082       .  S
C733        C734   1.376       .  A
C733        H745   1.081       .  S
C734        H746   1.079       .  S
C735        C736   1.372       .  A
C735        H747   1.078       .  S
C736        H748   1.074       .  S
C737        C738   1.374       .  A
C737        H749   1.082       .  S
C738        H750   1.082       .  S
C739        C758   1.511       .  S
C740        C802   1.517       .  S
C741        C754   1.503       .  S
C742        C770   1.510       .  S
C753        C754   1.351       .  D
C753        H755   1.086       .  S
C754        H756   1.086       .  S
C757        C758   1.355       .  D
C757        H759   1.086       .  S
C758        H760   1.087       .  S
C761        C762   1.350       .  D
C761       H1611   1.086       .  S
C762        H764   1.086       .  S
H763       C1609   1.086       .  S
C765        C766   1.344       .  D
C765       H1615   1.087       .  S
C766        H768   1.086       .  S
H767       C1613   1.087       .  S
C769        C770   1.351       .  D
C769        H771   1.086       .  S
C770        H772   1.086       .  S
C773        C774   1.353       .  D
C773        H775   1.079       .  S
C777        C778   1.352       .  D
C777        H779   1.086       .  S
C778        H780   1.087       .  S
C781        C782   1.349       .  D
C781        H783   1.086       .  S
C782        H784   1.087       .  S
C785        C786   1.344       .  D
C785       H1635   1.086       .  S
C786        H788   1.085       .  S
H787       C1633   1.086       .  S
C789       H1639   1.086   1_554  S
C790        H792   1.084       .  S
H791       C1637   1.086       .  S
C793        C794   1.346       .  D
C793        H795   1.086       .  S
C794       H1644   1.086       .  S
H796       C1642   1.086       .  S
C797        C798   1.345       .  D
C797       H1647   1.086       .  S
C798        H800   1.085       .  S
H799       C1645   1.085       .  S
C801        C802   1.355       .  D
C801        H803   1.085       .  S
C802        H804   1.087       .  S
C805        C806   1.348       .  D
C805        H807   1.084       .  S
C806        H808   1.087       .  S
C809        C810   1.347       .  D
C809        H811   1.087       .  S
C813        C814   1.349       .  D
C814        H816   1.087       .  S
C817        C818   1.350       .  D
C817        H819   1.085       .  S
C818       H1668   1.086       .  S
H820       C1666   1.086       .  S
C821        C822   1.353       .  D
C821       H1671   1.086       .  S
C822        H824   1.084       .  S
H823       C1669   1.086   1_455  S
C825        C826   1.344   1_565  D
C825        H827   1.087       .  S
C826        H828   1.087       .  S
C829        C830   1.349       .  D
C829        H831   1.086       .  S
C830        H832   1.086       .  S
C833        C834   1.351       .  D
C833        H835   1.087       .  S
C834       H1260   1.086   1_554  S
H836       C1258   1.086       .  S
C837        C838   1.353       .  D
C837        H839   1.086       .  S
C838       H1264   1.086       .  S
H840       C1262   1.086       .  S
C841        C842   1.344       .  D
C842        H844   1.087   1_565  S
C845        C846   1.343       .  D
C845        H847   1.087       .  S
O849        V857   1.902       .  S
O849       C1283   1.266       .  A
O850       C1284   1.265   1_545  A
O851        V857   1.908   1_545  S
O852       C1286   1.264       .  A
O854        V858   1.921       .  S
O854       C1285   1.269       .  A
O855        V858   1.897       .  S
O855        C860   1.262       .  A
O856        C859   1.265       .  A
C859       O1273   1.268   1_554  A
C859       C1269   1.487       .  S
C860       O1274   1.266   1_554  A
C860       C1266   1.475       .  S
C861       O1278   1.271       .  A
C861       C1258   1.497       .  S
C862       O1276   1.266   1_554  A
C862       C1262   1.491       .  S
O863        V871   1.916       .  S
O863        C873   1.269   1_545  A
O864        C874   1.269       .  A
O865        V871   1.900   1_565  S
O866        C876   1.263       .  A
O868        V872   1.923   1_565  S
O868        C875   1.271       .  A
O869        V872   1.883   1_655  S
O869        C874   1.257       .  A
O870        C873   1.262       .  A
C873       C1253   1.483       .  S
C874       C1249   1.467       .  S
C875       C1246   1.487   1_455  S
C876       C1241   1.489       .  S
O877        V885   1.910   1_545  S
O877       C1311   1.266       .  A
O878        V885   1.916       .  S
O878       C1312   1.268       .  A
O879        V885   1.898       .  S
O879       C1313   1.263       .  A
O880        V885   1.893       .  S
O880       C1314   1.263       .  A
O881        V886   1.906       .  S
O881        C890   1.267   1_554  A
O882        V886   1.916       .  S
O882        C889   1.269   1_554  A
O883        V886   1.908       .  S
O883        C888   1.266   1_554  A
O884        V886   1.904   1_545  S
O884        C887   1.264   1_554  A
V885       V1310   2.085       .  T
V886       V1309   2.084   1_554  T
C887       O1301   1.268       .  A
C887       C1234   1.484       .  S
C888       O1302   1.269       .  A
C888       C1237   1.492   1_556  S
C889       O1303   1.264       .  A
C889       C1270   1.486       .  S
C890       O1304   1.262       .  A
C890       C1265   1.474       .  S
O891        V899   1.894   1_565  S
O891        C901   1.262       .  A
O892        V899   1.900       .  S
O892        C902   1.261       .  A
O893        V899   1.909       .  S
O893        C903   1.269       .  A
O894        V899   1.909   1_565  S
O894        C904   1.267   1_565  A
O895        V900   1.899       .  S
O895        C904   1.263       .  A
O896        V900   1.882       .  S
O896        C903   1.257       .  A
O897        V900   1.925       .  S
O897        C902   1.272       .  A
O898        V900   1.922   1_565  S
O898        C901   1.271       .  A
V899        V900   2.087       .  T
C901       C1229   1.487       .  S
C902       C1225   1.490       .  S
C903       C1250   1.467       .  S
C904       C1254   1.480   1_545  S
N905        C910   1.356       .  A
N905        C909   1.356       .  A
N905        H937   1.042       .  S
N906        C913   1.353       .  A
N906        C914   1.353       .  A
N907        C912   1.354       .  A
N907        C911   1.357       .  A
N907        H938   1.034       .  S
N908        C915   1.355       .  A
N908        C916   1.351       .  A
C909        C917   1.387       .  A
C909        C925   1.416       .  A
C910       C1350   1.422       .  A
C910        C918   1.388       .  A
C911        C919   1.389       .  A
C911        C928   1.426       .  A
C912        C927   1.420       .  A
C912        C920   1.386       .  A
C913        C925   1.415       .  A
C913        C921   1.387       .  A
C914       C1352   1.411       .  A
C914        C922   1.385       .  A
C915        C923   1.385       .  A
C915        C926   1.418       .  A
C916        C924   1.386       .  A
C916        C927   1.419       .  A
C917        C918   1.377       .  A
C917        H929   1.082       .  S
C918        H930   1.082       .  S
C919        C920   1.369       .  A
C919        H931   1.078       .  S
C920        H932   1.080       .  S
C921        C922   1.369       .  A
C921        H933   1.078       .  S
C922        H934   1.081       .  S
C923        C924   1.376       .  A
C923        H935   1.082       .  S
C924        H936   1.080       .  S
C925       C1217   1.488       .  S
C926       C1261   1.505       .  S
C926       C1334   1.421   1_554  A
C927       C1222   1.490       .  S
C928       C1214   1.509       .  S
C928       C1338   1.423   1_554  A
N939        C944   1.352       .  A
N939        C943   1.358       .  A
N939        H971   1.038       .  S
N940        C947   1.356       .  A
N940        C948   1.351       .  A
N941        C946   1.359       .  A
N941        C945   1.354       .  A
N941        H972   1.038       .  S
N942        C949   1.352       .  A
N942        C950   1.358       .  A
C943        C951   1.386       .  A
C943        C959   1.416       .  A
C944        C960   1.415       .  A
C944        C952   1.387       .  A
C945        C953   1.387       .  A
C945        C962   1.420       .  A
C946        C961   1.420       .  A
C946        C954   1.385       .  A
C947        C959   1.419       .  A
C947        C955   1.385   1_655  A
C948        C962   1.415       .  A
C948        C956   1.387   1_655  A
C949        C957   1.386       .  A
C949        C960   1.420       .  A
C950        C958   1.386       .  A
C950        C961   1.423       .  A
C951        C952   1.371       .  A
C951        H963   1.082       .  S
C952        H964   1.079       .  S
C953        C954   1.374       .  A
C953        H965   1.079       .  S
C954        H966   1.081       .  S
C955        C956   1.376       .  A
C955        H967   1.082       .  S
C956        H968   1.082       .  S
C957        C958   1.377       .  A
C957        H969   1.080       .  S
C958        H970   1.080       .  S
C959       C1245   1.507   1_655  S
C960       C1221   1.487       .  S
C961       C1210   1.508       .  S
C962       C1218   1.485       .  S
N973        C978   1.358       .  A
N973        C977   1.359       .  A
N973       H1005   1.039       .  S
N974        C981   1.357       .  A
N974        C982   1.356       .  A
N975        C980   1.361       .  A
N975        C979   1.359       .  A
N975       H1006   1.035       .  S
N976        C983   1.355       .  A
N976        C984   1.356       .  A
C977        C985   1.386       .  A
C977       C1417   1.420       .  A
C978        C994   1.424       .  A
C978        C986   1.385       .  A
C979        C987   1.390       .  A
C979        C996   1.431       .  A
C980        C995   1.425   1_554  A
C980        C988   1.384       .  A
C981        C993   1.423   1_554  A
C981        C989   1.386       .  A
C982        C996   1.423       .  A
C982        C990   1.386       .  A
C983        C991   1.386       .  A
C983        C994   1.419       .  A
C984        C992   1.385       .  A
C984       C1419   1.420       .  A
C985        C986   1.375       .  A
C985        H997   1.082       .  S
C986        H998   1.077       .  S
C987        C988   1.375       .  A
C987        H999   1.078       .  S
C988       H1000   1.081       .  S
C989        C990   1.376       .  A
C989       H1001   1.082       .  S
C990       H1002   1.082       .  S
C991        C992   1.372       .  A
C991       H1003   1.081       .  S
C992       H1004   1.079       .  S
C993       C1238   1.510       .  S
C993       C1401   1.420       .  A
C994       C1201   1.507       .  S
C995       C1197   1.505       .  S
C995       C1408   1.419       .  A
C996       C1205   1.509       .  S
N1007      C1012   1.358       .  A
N1007      C1011   1.358       .  A
N1007      H1039   1.038       .  S
N1008      C1015   1.356       .  A
N1008      C1016   1.356       .  A
N1009      C1014   1.357       .  A
N1009      C1013   1.355       .  A
N1009      H1040   1.039       .  S
N1010      C1017   1.355       .  A
N1010      C1018   1.353       .  A
C1011      C1019   1.386       .  A
C1011      C1027   1.421       .  A
C1012      C1028   1.425       .  A
C1012      C1020   1.389       .  A
C1013      C1021   1.384       .  A
C1013      C1030   1.419       .  A
C1014      C1029   1.420       .  A
C1014      C1022   1.386       .  A
C1015      C1027   1.418       .  A
C1015      C1023   1.383       .  A
C1016      C1030   1.417       .  A
C1016      C1024   1.385       .  A
C1017      C1025   1.386       .  A
C1017      C1028   1.418       .  A
C1018      C1026   1.383       .  A
C1018      C1029   1.412       .  A
C1019      C1020   1.380       .  A
C1019      H1031   1.082       .  S
C1020      H1032   1.082       .  S
C1021      C1022   1.379       .  A
C1021      H1033   1.079       .  S
C1022      H1034   1.081       .  S
C1023      C1024   1.371       .  A
C1023      H1035   1.080       .  S
C1024      H1036   1.078       .  S
C1025      C1026   1.372       .  A
C1025      H1037   1.081       .  S
C1026      H1038   1.077       .  S
C1027      C1206   1.508       .  S
C1028      C1230   1.509       .  S
C1029      C1202   1.500       .  S
C1030      C1193   1.502       .  S
N1041      C1046   1.357       .  A
N1041      C1045   1.361       .  A
N1041      H1073   1.040       .  S
N1042      C1049   1.361       .  A
N1042      C1050   1.358       .  A
N1043      C1048   1.359       .  A
N1043      C1047   1.356       .  A
N1043      H1074   1.042       .  S
N1044      C1051   1.359       .  A
N1044      C1052   1.360       .  A
C1045      C1053   1.386   1_655  A
C1045      C1485   1.424       .  A
C1046      C1062   1.424       .  A
C1046      C1054   1.387   1_655  A
C1047      C1055   1.387       .  A
C1047      C1064   1.423       .  A
C1048      C1063   1.422       .  A
C1048      C1056   1.385       .  A
C1049      C1061   1.427       .  A
C1049      C1057   1.386       .  A
C1050      C1064   1.424       .  A
C1050      C1058   1.386       .  A
C1051      C1059   1.387       .  A
C1051      C1062   1.425       .  A
C1052      C1060   1.384       .  A
C1052      C1487   1.426   1_554  A
C1053      C1054   1.375       .  A
C1053      H1065   1.082       .  S
C1054      H1066   1.080       .  S
C1055      C1056   1.381       .  A
C1055      H1067   1.081       .  S
C1056      H1068   1.080       .  S
C1057      C1058   1.376       .  A
C1057      H1069   1.081       .  S
C1058      H1070   1.081       .  S
C1059      C1060   1.368       .  A
C1059      H1071   1.081       .  S
C1060      H1072   1.076       .  S
C1061      C1257   1.517       .  S
C1061      C1469   1.422       .  A
C1062      C1189   1.507       .  S
C1063      C1213   1.501       .  S
C1063      C1476   1.410       .  A
C1064      C1185   1.509       .  S
N1075      C1080   1.358       .  A
N1075      C1079   1.361       .  A
N1075      H1107   1.042       .  S
N1076      C1083   1.354       .  A
N1076      C1084   1.353       .  A
N1077      C1082   1.354       .  A
N1077      C1081   1.357       .  A
N1077      H1108   1.042       .  S
N1078      C1085   1.358       .  A
N1078      C1086   1.360       .  A
C1079      C1087   1.387       .  A
C1079      C1095   1.426       .  A
C1080      C1096   1.427       .  A
C1080      C1088   1.387       .  A
C1081      C1089   1.388       .  A
C1081      C1098   1.421       .  A
C1082      C1097   1.413       .  A
C1082      C1090   1.384       .  A
C1083      C1095   1.419       .  A
C1083      C1091   1.387   1_655  A
C1084      C1098   1.412       .  A
C1084      C1092   1.383   1_655  A
C1085      C1093   1.388       .  A
C1085      C1096   1.426       .  A
C1086      C1094   1.384       .  A
C1086      C1097   1.423       .  A
C1087      C1088   1.380       .  A
C1087      H1099   1.082       .  S
C1088      H1100   1.081       .  S
C1089      C1090   1.379       .  A
C1089      H1101   1.081       .  S
C1090      H1102   1.082       .  S
C1091      C1092   1.374       .  A
C1091      H1103   1.081       .  S
C1092      H1104   1.080       .  S
C1093      C1094   1.377       .  A
C1093      H1105   1.081       .  S
C1094      H1106   1.082       .  S
C1095      C1242   1.514       .  S
C1096      C1186   1.513       .  S
C1097      C1209   1.503       .  S
C1098      C1190   1.499       .  S
N1109      C1114   1.359       .  A
N1109      C1113   1.360       .  A
N1109      H1141   1.036       .  S
N1110      C1117   1.356       .  A
N1110      C1118   1.354       .  A
N1111      C1116   1.357       .  A
N1111      C1115   1.353       .  A
N1111      H1142   1.041       .  S
N1112      C1119   1.360       .  A
N1112      C1120   1.360       .  A
C1113      C1121   1.389       .  A
C1113      C1129   1.428       .  A
C1114      C1130   1.424       .  A
C1114      C1122   1.386       .  A
C1115      C1123   1.386       .  A
C1115      C1132   1.418       .  A
C1116      C1555   1.418       .  A
C1116      C1124   1.386       .  A
C1117      C1553   1.423       .  A
C1117      C1125   1.387       .  A
C1118      C1132   1.419       .  A
C1118      C1126   1.386       .  A
C1119      C1127   1.383       .  A
C1119      C1130   1.426       .  A
C1120      C1128   1.386       .  A
C1120      C1131   1.424   1_554  A
C1121      C1122   1.372       .  A
C1121      H1133   1.081       .  S
C1122      H1134   1.080       .  S
C1123      C1124   1.377       .  A
C1123      H1135   1.082       .  S
C1124      H1136   1.077       .  S
C1125      C1126   1.371       .  A
C1125      H1137   1.080       .  S
C1126      H1138   1.081       .  S
C1127      C1128   1.374       .  A
C1127      H1139   1.077       .  S
C1128      H1140   1.081       .  S
C1129      C1233   1.508       .  S
C1129      C1541   1.426   1_554  A
C1130      C1181   1.514       .  S
C1131      C1198   1.509       .  S
C1131      C1540   1.424       .  A
C1132      C1177   1.497       .  S
N1143      C1148   1.360       .  A
N1143      C1147   1.360       .  A
N1143      H1175   1.042       .  S
N1144      C1151   1.355       .  A
N1144      C1152   1.358       .  A
N1145      C1150   1.355       .  A
N1145      C1149   1.353       .  A
N1145      H1176   1.040       .  S
N1146      C1153   1.353       .  A
N1146      C1154   1.354       .  A
C1147      C1155   1.386       .  A
C1147      C1163   1.428       .  A
C1148      C1164   1.429       .  A
C1148      C1156   1.387       .  A
C1149      C1157   1.386       .  A
C1149      C1166   1.414       .  A
C1150      C1165   1.415       .  A
C1150      C1158   1.387       .  A
C1151      C1163   1.417       .  A
C1151      C1159   1.384       .  A
C1152      C1166   1.419       .  A
C1152      C1160   1.382       .  A
C1153      C1161   1.388       .  A
C1153      C1164   1.416       .  A
C1154      C1162   1.385       .  A
C1154      C1165   1.415       .  A
C1155      C1156   1.384       .  A
C1155      H1167   1.081       .  S
C1156      H1168   1.082       .  S
C1157      C1158   1.376       .  A
C1157      H1169   1.081       .  S
C1158      H1170   1.082       .  S
C1159      C1160   1.371       .  A
C1159      H1171   1.077       .  S
C1160      H1172   1.078       .  S
C1161      C1162   1.372       .  A
C1161      H1173   1.082       .  S
C1162      H1174   1.082       .  S
C1163      C1182   1.509       .  S
C1164      C1226   1.508       .  S
C1165      C1178   1.495       .  S
C1166      C1194   1.501       .  S
C1177      C1178   1.349       .  D
C1177      H1179   1.086       .  S
C1178      H1180   1.087       .  S
C1181      C1182   1.351       .  D
C1181      H1183   1.086       .  S
C1182      H1184   1.087       .  S
C1185      C1186   1.356       .  D
C1186      H1188   1.086       .  S
C1189      C1190   1.350       .  D
C1190      H1192   1.086       .  S
C1193      C1194   1.350       .  D
C1193      H1195   1.086       .  S
C1194      H1196   1.087       .  S
C1197      C1198   1.350       .  D
C1197      H1199   1.081       .  S
C1198      H1624   1.086   1_556  S
H1200      C1622   1.087       .  S
C1201      C1202   1.350       .  D
C1201      H1203   1.086       .  S
C1202      H1204   1.086       .  S
C1205      C1206   1.356       .  D
C1205      H1207   1.085       .  S
C1206      H1208   1.086       .  S
C1209      C1210   1.349       .  D
C1210      H1212   1.085       .  S
C1213      C1638   1.345       .  D
C1214      C1637   1.353   1_554  D
C1214      H1216   1.084       .  S
C1217      C1218   1.341       .  D
C1217      H1219   1.087       .  S
C1221      C1222   1.342       .  D
C1222      H1224   1.086       .  S
C1225      C1226   1.346       .  D
C1225      H1227   1.086       .  S
C1226      H1228   1.087       .  S
C1229      C1230   1.356       .  D
C1229      H1231   1.084       .  S
C1230      H1232   1.086       .  S
C1233      C1234   1.351   1_554  D
C1233      H1235   1.086       .  S
C1234      H1660   1.085       .  S
H1236      C1658   1.086       .  S
C1237      C1238   1.351   1_554  D
C1237      H1663   1.086       .  S
C1238      H1240   1.087       .  S
H1239      C1661   1.086       .  S
C1241      C1242   1.357       .  D
C1241      H1243   1.084       .  S
C1245      C1246   1.345   1_455  D
C1246      H1248   1.086       .  S
C1249      C1250   1.334       .  D
C1249      H1251   1.087   1_545  S
C1250      H1252   1.087       .  S
C1253      C1254   1.352       .  D
C1253      H1255   1.086   1_565  S
C1254      H1256   1.086       .  S
C1257      C1258   1.353   1_655  D
C1257      H1259   1.087       .  S
C1261      C1262   1.352       .  D
C1261      H1263   1.087   1_554  S
C1265      C1266   1.342   1_566  D
C1265      H1691   1.087       .  S
C1266      H1268   1.087       .  S
H1267      C1689   1.087       .  S
C1269      C1270   1.346   1_554  D
C1269      H1271   1.086       .  S
C1270      H1696   1.087       .  S
H1272      C1694   1.087       .  S
O1273      V1281   1.911       .  S
O1275      V1281   1.905   1_545  S
O1278      V1282   1.928       .  S
O1279      V1282   1.881   1_655  S
O1279      C1284   1.261   1_545  A
O1280      C1283   1.264       .  A
C1283      C1693   1.479       .  S
C1284      C1690   1.469       .  S
C1285      C1682   1.498   1_554  S
C1286      C1686   1.490       .  S
O1287      V1295   1.909       .  S
O1287      C1297   1.266       .  A
O1288      C1298   1.262       .  A
O1289      V1295   1.910       .  S
O1290      C1300   1.268       .  A
O1292      V1296   1.917       .  S
O1292      C1299   1.268       .  A
O1293      V1296   1.908       .  S
O1293      C1298   1.267       .  A
O1294      C1297   1.268       .  A
C1297      C1677   1.491   1_565  S
C1298      C1673   1.475       .  S
C1299      C1670   1.498       .  S
C1300      C1665   1.489       .  S
O1301      V1309   1.916   1_545  S
O1302      V1309   1.920       .  S
O1303      V1309   1.901       .  S
O1304      V1309   1.895       .  S
O1305      V1310   1.895       .  S
O1305      C1314   1.263       .  A
O1306      V1310   1.906       .  S
O1306      C1313   1.266       .  A
O1307      V1310   1.909       .  S
O1307      C1312   1.266       .  A
O1308      V1310   1.907   1_545  S
O1308      C1311   1.265       .  A
C1311      C1658   1.478       .  S
C1312      C1661   1.491       .  S
C1313      C1694   1.477       .  S
C1314      C1689   1.464       .  S
O1315      V1323   1.917   1_565  S
O1315      C1325   1.269       .  A
O1316      V1323   1.923       .  S
O1316      C1326   1.270       .  A
O1317      V1323   1.898   1_565  S
O1317      C1327   1.262   1_565  A
O1318      V1323   1.903       .  S
O1318      C1328   1.264       .  A
O1319      V1324   1.921       .  S
O1319      C1328   1.270       .  A
O1320      V1324   1.905       .  S
O1320      C1327   1.267       .  A
O1321      V1324   1.908       .  S
O1321      C1326   1.266       .  A
O1322      V1324   1.897   1_565  S
O1322      C1325   1.262       .  A
V1323      V1324   2.086       .  T
C1325      C1653   1.483       .  S
C1326      C1649   1.498       .  S
C1327      C1674   1.477   1_545  S
C1328      C1678   1.490       .  S
N1329      C1334   1.360       .  A
N1329      C1333   1.356       .  A
N1329      H1361   1.041       .  S
N1330      C1337   1.355       .  A
N1330      C1338   1.358       .  A
N1331      C1336   1.360       .  A
N1331      C1335   1.359       .  A
N1331      H1362   1.041       .  S
N1332      C1339   1.358       .  A
N1332      C1340   1.358       .  A
C1333      C1341   1.385       .  A
C1333      C1349   1.419       .  A
C1334      C1342   1.387       .  A
C1335      C1343   1.383       .  A
C1335      C1352   1.423       .  A
C1336      C1351   1.428       .  A
C1336      C1344   1.389       .  A
C1337      C1349   1.425       .  A
C1337      C1345   1.383       .  A
C1338      C1346   1.383       .  A
C1339      C1347   1.383       .  A
C1339      C1350   1.421       .  A
C1340      C1348   1.388       .  A
C1340      C1351   1.426       .  A
C1341      C1342   1.372       .  A
C1341      H1353   1.078       .  S
C1342      H1354   1.082       .  S
C1343      C1344   1.379       .  A
C1343      H1355   1.080       .  S
C1344      H1356   1.082       .  S
C1345      C1346   1.378       .  A
C1345      H1357   1.075       .  S
C1346      H1358   1.082       .  S
C1347      C1348   1.372       .  A
C1347      H1359   1.082   1_655  S
C1348      H1360   1.076       .  S
C1349      C1641   1.507       .  S
C1350      C1685   1.510       .  S
C1351      C1646   1.510       .  S
C1352      C1638   1.502       .  S
N1363      C1368   1.361       .  A
N1363      C1367   1.363       .  A
N1363      H1395   1.029       .  S
N1364      C1371   1.359       .  A
N1364      C1372   1.357       .  A
N1365      C1370   1.362       .  A
N1365      C1369   1.359       .  A
N1365      H1396   1.025       .  S
N1366      C1373   1.355       .  A
N1366      C1374   1.357       .  A
C1367      C1375   1.389       .  A
C1367      C1383   1.430       .  A
C1368      C1384   1.424       .  A
C1368      C1376   1.384       .  A
C1369      C1377   1.384       .  A
C1369      C1386   1.423       .  A
C1370      C1385   1.425       .  A
C1370      C1378   1.385       .  A
C1371      C1383   1.427       .  A
C1371      C1379   1.386   1_655  A
C1372      C1386   1.424       .  A
C1372      C1380   1.384       .  A
C1373      C1381   1.385       .  A
C1373      C1384   1.421       .  A
C1374      C1382   1.387       .  A
C1374      C1385   1.425       .  A
C1375      C1376   1.376       .  A
C1375      H1387   1.082       .  S
C1376      H1388   1.080       .  S
C1377      C1378   1.366       .  A
C1377      H1389   1.073       .  S
C1378      H1390   1.079       .  S
C1379      C1380   1.377   1_455  A
C1379      H1391   1.081       .  S
C1380      H1392   1.079   1_655  S
C1381      C1382   1.375       .  A
C1381      H1393   1.082       .  S
C1382      H1394   1.081       .  S
C1383      C1669   1.520       .  S
C1384      C1645   1.503       .  S
C1385      C1634   1.508       .  S
C1386      C1642   1.506       .  S
N1397      C1402   1.358       .  A
N1397      C1401   1.359       .  A
N1397      H1429   1.041       .  S
N1398      C1405   1.356       .  A
N1398      C1406   1.355       .  A
N1399      C1404   1.359       .  A
N1399      C1403   1.357       .  A
N1399      H1430   1.030       .  S
N1400      C1407   1.355       .  A
N1400      C1408   1.356       .  A
C1401      C1409   1.386       .  A
C1402      C1418   1.422       .  A
C1402      C1410   1.385       .  A
C1403      C1411   1.390       .  A
C1403      C1420   1.426       .  A
C1404      C1419   1.421       .  A
C1404      C1412   1.385       .  A
C1405      C1417   1.421       .  A
C1405      C1413   1.386       .  A
C1406      C1420   1.422       .  A
C1406      C1414   1.386       .  A
C1407      C1415   1.387       .  A
C1407      C1418   1.419       .  A
C1408      C1416   1.385       .  A
C1409      C1410   1.375       .  A
C1409      H1421   1.082       .  S
C1410      H1422   1.079       .  S
C1411      C1412   1.374       .  A
C1411      H1423   1.079       .  S
C1412      H1424   1.082       .  S
C1413      C1414   1.375       .  A
C1413      H1425   1.082       .  S
C1414      H1426   1.082       .  S
C1415      C1416   1.371       .  A
C1415      H1427   1.080       .  S
C1416      H1428   1.079       .  S
C1417      C1662   1.509       .  S
C1418      C1625   1.505       .  S
C1419      C1621   1.500       .  S
C1420      C1629   1.501       .  S
N1431      C1436   1.354       .  A
N1431      C1435   1.355       .  A
N1431      H1463   1.039       .  S
N1432      C1439   1.356       .  A
N1432      C1440   1.357       .  A
N1433      C1438   1.357       .  A
N1433      C1437   1.358       .  A
N1433      H1464   1.039       .  S
N1434      C1441   1.358       .  A
N1434      C1442   1.354       .  A
C1435      C1443   1.387       .  A
C1435      C1451   1.415       .  A
C1436      C1452   1.417       .  A
C1436      C1444   1.388       .  A
C1437      C1445   1.382       .  A
C1437      C1454   1.421       .  A
C1438      C1453   1.425       .  A
C1438      C1446   1.387       .  A
C1439      C1451   1.416       .  A
C1439      C1447   1.381       .  A
C1440      C1454   1.418       .  A
C1440      C1448   1.384       .  A
C1441      C1449   1.386       .  A
C1441      C1452   1.424       .  A
C1442      C1450   1.384       .  A
C1442      C1453   1.418       .  A
C1443      C1444   1.376       .  A
C1443      H1455   1.082       .  S
C1444      H1456   1.082       .  S
C1445      C1446   1.379       .  A
C1445      H1457   1.078       .  S
C1446      H1458   1.081       .  S
C1447      C1448   1.368       .  A
C1447      H1459   1.080       .  S
C1448      H1460   1.072       .  S
C1449      C1450   1.374       .  A
C1449      H1461   1.081       .  S
C1450      H1462   1.079       .  S
C1451      C1630   1.501       .  S
C1452      C1654   1.506       .  S
C1453      C1626   1.502       .  S
C1454      C1617   1.511       .  S
N1465      C1470   1.357       .  A
N1465      C1469   1.357       .  A
N1465      H1497   1.041       .  S
N1466      C1473   1.358       .  A
N1466      C1474   1.354       .  A
N1467      C1472   1.362       .  A
N1467      C1471   1.359       .  A
N1467      H1498   1.042       .  S
N1468      C1475   1.354       .  A
N1468      C1476   1.354       .  A
C1469      C1477   1.388   1_655  A
C1470      C1486   1.420       .  A
C1470      C1478   1.386       .  A
C1471      C1479   1.383       .  A
C1471      C1488   1.425       .  A
C1472      C1487   1.423       .  A
C1472      C1480   1.386       .  A
C1473      C1485   1.422   1_556  A
C1473      C1481   1.386       .  A
C1474      C1488   1.416       .  A
C1474      C1482   1.385       .  A
C1475      C1483   1.386       .  A
C1475      C1486   1.415       .  A
C1476      C1484   1.383       .  A
C1477      C1478   1.379   1_455  A
C1477      H1489   1.082       .  S
C1478      H1490   1.081   1_655  S
C1479      C1480   1.374       .  A
C1479      H1491   1.077       .  S
C1480      H1492   1.081       .  S
C1481      C1482   1.376       .  A
C1481      H1493   1.081       .  S
C1482      H1494   1.082       .  S
C1483      C1484   1.366       .  A
C1483      H1495   1.078       .  S
C1484      H1496   1.079       .  S
C1485      C1681   1.517       .  S
C1486      C1613   1.501       .  S
C1487      C1637   1.515       .  S
C1488      C1609   1.507       .  S
N1499      C1504   1.358       .  A
N1499      C1503   1.359       .  A
N1499      H1531   1.041       .  S
N1500      C1507   1.355       .  A
N1500      C1508   1.353       .  A
N1501      C1506   1.352       .  A
N1501      C1505   1.353       .  A
N1501      H1532   1.043       .  S
N1502      C1509   1.355       .  A
N1502      C1510   1.359       .  A
C1503      C1511   1.387       .  A
C1503      C1519   1.425       .  A
C1504      C1520   1.426       .  A
C1504      C1512   1.388       .  A
C1505      C1513   1.387       .  A
C1505      C1522   1.418       .  A
C1506      C1521   1.406       .  A
C1506      C1514   1.383       .  A
C1507      C1519   1.422       .  A
C1507      C1515   1.388       .  A
C1508      C1522   1.411       .  A
C1508      C1516   1.382       .  A
C1509      C1517   1.388       .  A
C1509      C1520   1.424       .  A
C1510      C1518   1.380       .  A
C1510      C1521   1.417       .  A
C1511      C1512   1.381       .  A
C1511      H1523   1.082       .  S
C1512      H1524   1.082       .  S
C1513      C1514   1.380       .  A
C1513      H1525   1.079       .  S
C1514      H1526   1.083       .  S
C1515      C1516   1.374       .  A
C1515      H1527   1.081   1_655  S
C1516      H1528   1.081   1_655  S
C1517      C1518   1.371       .  A
C1517      H1529   1.076       .  S
C1518      H1530   1.078       .  S
C1519      C1666   1.515       .  S
C1520      C1610   1.507       .  S
C1521      C1633   1.500       .  S
C1522      C1614   1.499       .  S
N1533      C1538   1.356       .  A
N1533      C1537   1.358       .  A
N1533      H1565   1.037       .  S
N1534      C1541   1.358       .  A
N1534      C1542   1.356       .  A
N1535      C1540   1.360       .  A
N1535      C1539   1.358       .  A
N1535      H1566   1.036       .  S
N1536      C1543   1.354       .  A
N1536      C1544   1.357       .  A
C1537      C1545   1.388       .  A
C1537      C1553   1.423       .  A
C1538      C1554   1.419       .  A
C1538      C1546   1.386       .  A
C1539      C1547   1.383       .  A
C1539      C1556   1.424       .  A
C1540      C1548   1.387       .  A
C1541      C1549   1.388       .  A
C1542      C1556   1.421       .  A
C1542      C1550   1.385       .  A
C1543      C1551   1.385       .  A
C1543      C1554   1.420       .  A
C1544      C1552   1.385       .  A
C1544      C1555   1.418       .  A
C1545      C1546   1.372       .  A
C1545      H1557   1.081       .  S
C1546      H1558   1.079       .  S
C1547      C1548   1.374       .  A
C1547      H1559   1.078       .  S
C1548      H1560   1.075       .  S
C1549      C1550   1.369       .  A
C1549      H1561   1.079       .  S
C1550      H1562   1.080       .  S
C1551      C1552   1.375       .  A
C1551      H1563   1.079       .  S
C1552      H1564   1.082       .  S
C1553      C1657   1.502       .  S
C1554      C1605   1.498       .  S
C1555      C1622   1.502       .  S
C1556      C1601   1.505       .  S
N1567      C1572   1.360       .  A
N1567      C1571   1.356       .  A
N1567      H1599   1.041       .  S
N1568      C1575   1.355       .  A
N1568      C1576   1.360       .  A
N1569      C1574   1.355       .  A
N1569      C1573   1.358       .  A
N1569      H1600   1.040       .  S
N1570      C1577   1.359       .  A
N1570      C1578   1.358       .  A
C1571      C1579   1.386       .  A
C1571      C1587   1.424       .  A
C1572      C1588   1.423       .  A
C1572      C1580   1.386       .  A
C1573      C1581   1.384       .  A
C1573      C1590   1.416       .  A
C1574      C1589   1.420       .  A
C1574      C1582   1.388       .  A
C1575      C1587   1.417       .  A
C1575      C1583   1.383       .  A
C1576      C1590   1.423       .  A
C1576      C1584   1.380       .  A
C1577      C1585   1.387       .  A
C1577      C1588   1.424       .  A
C1578      C1586   1.385       .  A
C1578      C1589   1.424       .  A
C1579      C1580   1.379       .  A
C1579      H1591   1.079       .  S
C1580      H1592   1.082       .  S
C1581      C1582   1.375       .  A
C1581      H1593   1.081       .  S
C1582      H1594   1.079       .  S
C1583      C1584   1.367       .  A
C1583      H1595   1.078       .  S
C1584      H1596   1.069       .  S
C1585      C1586   1.373       .  A
C1585      H1597   1.082       .  S
C1586      H1598   1.081       .  S
C1587      C1606   1.500       .  S
C1588      C1650   1.514       .  S
C1589      C1602   1.502       .  S
C1590      C1618   1.516       .  S
C1601      C1602   1.349       .  D
C1601      H1603   1.086       .  S
C1602      H1604   1.087       .  S
C1605      C1606   1.347       .  D
C1605      H1607   1.087       .  S
C1606      H1608   1.087       .  S
C1609      C1610   1.353       .  D
C1610      H1612   1.084       .  S
C1613      C1614   1.348       .  D
C1614      H1616   1.086       .  S
C1617      C1618   1.354       .  D
C1617      H1619   1.086       .  S
C1618      H1620   1.087       .  S
C1621      C1622   1.348       .  D
C1621      H1623   1.084       .  S
C1625      C1626   1.351       .  D
C1625      H1627   1.086       .  S
C1626      H1628   1.087       .  S
C1629      C1630   1.351       .  D
C1629      H1631   1.086       .  S
C1630      H1632   1.086       .  S
C1633      C1634   1.347       .  D
C1634      H1636   1.086       .  S
C1638      H1640   1.086       .  S
C1641      C1642   1.350       .  D
C1641      H1643   1.087       .  S
C1645      C1646   1.351       .  D
C1646      H1648   1.086       .  S
C1649      C1650   1.357       .  D
C1649      H1651   1.085       .  S
C1650      H1652   1.086       .  S
C1653      C1654   1.345       .  D
C1653      H1655   1.085       .  S
C1654      H1656   1.087       .  S
C1657      C1658   1.348       .  D
C1657      H1659   1.087       .  S
C1661      C1662   1.351       .  D
C1662      H1664   1.087       .  S
C1665      C1666   1.353       .  D
C1665      H1667   1.084       .  S
C1669      C1670   1.354       .  D
C1670      H1672   1.084       .  S
C1673      C1674   1.342       .  D
C1673      H1675   1.087       .  S
C1674      H1676   1.087       .  S
C1677      C1678   1.348       .  D
C1677      H1679   1.086       .  S
C1678      H1680   1.087       .  S
C1681      C1682   1.355   1_554  D
C1681      H1683   1.086       .  S
C1685      C1686   1.350   1_655  D
C1685      H1687   1.086       .  S
C1689      C1690   1.344       .  D
C1690      H1692   1.086       .  S
C1693      C1694   1.344       .  D
C1693      H1695   1.087       .  S
