geometry optimzed in LAMMPS
_audit_creation_date              2020-11-30 
_audit_creation_method            'lammps2cif' 
_symmetry_space_group_name_H-M    'P1' 
_symmetry_Int_Tables_number       1 
_symmetry_cell_setting            triclinic 
loop_ 
_symmetry_equiv_pos_as_xyz 
  x,y,z 
_cell_length_a                    43.78031881 
_cell_length_b                    43.733900646101915 
_cell_length_c                    95.86057354089436 
_cell_angle_alpha                 90.06010262534208 
_cell_angle_beta                  90.0483036689696 
_cell_angle_gamma                 89.54566060584234 
loop_ 
_atom_site_label 
_atom_site_type_symbol 
_atom_site_fract_x 
_atom_site_fract_y 
_atom_site_fract_z 
_atom_site_charge 
O1          O  0.03086292  0.51478211  0.10055679    -0.71700
O2          O  0.47061601  0.51278901  0.07215201    -0.71900
O3          O  0.03206710  0.51282416  0.07265302    -0.71800
O4          O  0.46941015  0.51476003  0.10003134    -0.71800
O5          O  0.47528013  0.05652720  0.09972022    -0.71700
O6          O  0.03659415  0.05899493  0.07163832    -0.71800
O7          O  0.47541868  0.05733606  0.07160522    -0.71700
O8          O  0.03675957  0.05827760  0.09960093    -0.71900
V9          V  0.00070228  0.51481641  0.08633519     1.35200
V10         V  0.50607006  0.05658709  0.08564841     1.35200
C11         C  0.04137992  0.53986765  0.10492410     0.77500
C12         C  0.46596999  0.03244780  0.06651253     0.77600
C13         C  0.04856500  0.03454138  0.06707011     0.77500
C14         C  0.45805631  0.53985545  0.10416895     0.77400
C15         C  0.22910401  0.04315172  0.00340228     0.02400
C16         C  0.22891165  0.04697844  0.98875847     0.02300
C17         C  0.25692741  0.04928917  0.98164660    -0.18200
C18         C  0.28503055  0.04683362  0.98872059     0.02400
C19         C  0.28499285  0.04265419  0.00336589     0.02300
C20         C  0.25705827  0.04101342  0.01048426    -0.18200
H21         H  0.25705739  0.03822371  0.02172762     0.04400
H22         H  0.25686740  0.05143911  0.97037971     0.04400
C23         C  0.22238121  0.52994375  0.18275062     0.02400
C24         C  0.22256262  0.53884118  0.16850198     0.02300
C25         C  0.25644261  0.02999708  0.16089819    -0.18200
C26         C  0.27844731  0.53964192  0.16861441     0.02400
C27         C  0.27861998  0.53061936  0.18274332     0.02300
C28         C  0.25069547  0.52654590  0.18970812    -0.18200
H29         H  0.25117525  0.51981324  0.20058202     0.04400
H30         H  0.25655397  0.03410542  0.14973840     0.04400
O31         O  0.03144333  0.50225470  0.92229946    -0.71700
O32         O  0.47083423  0.49463736  0.89398431    -0.71900
O33         O  0.03261407  0.49421225  0.89447980    -0.71800
O34         O  0.47025885  0.50234904  0.92179562    -0.71800
O35         O  0.47632654  0.05270782  0.91841495    -0.71700
O36         O  0.03693015  0.03886011  0.89065962    -0.71800
O37         O  0.47568239  0.03964402  0.89093064    -0.71700
O38         O  0.03813103  0.05168531  0.91809516    -0.71900
V39         V  0.00122340  0.49933975  0.90806593     1.35200
V40         V  0.50678111  0.04478494  0.90463665     1.35200
C41         C  0.04841433  0.02942790  0.92517877     0.77500
C42         C  0.46507231  0.01326724  0.88862047     0.77600
C43         C  0.04783478  0.01236587  0.88860795     0.77500
C44         C  0.46583340  0.03075418  0.92549679     0.77400
C45         C  0.22848472  0.98850182  0.81044925     0.02400
C46         C  0.22824943  0.98882590  0.82529155     0.02300
C47         C  0.25615054  0.98906801  0.83258954    -0.18200
C48         C  0.28426470  0.98934921  0.82561482     0.02400
C49         C  0.28481587  0.98901370  0.81087943     0.02300
C50         C  0.25693639  0.98895539  0.80345956    -0.18200
H51         H  0.25744138  0.98805760  0.79216380     0.04400
H52         H  0.25600994  0.98998096  0.84389648     0.04400
C53         C  0.49957052  0.18793890  0.68208266     0.02400
C54         C  0.50120904  0.18750215  0.66730819     0.02300
C55         C  0.50278458  0.21521246  0.65994487    -0.18200
C56         C  0.50219866  0.24360104  0.66681384     0.02400
C57         C  0.50022961  0.24429310  0.68157151     0.02300
C58         C  0.49914598  0.21641388  0.68896311    -0.18200
H59         H  0.49809536  0.21687284  0.70026136     0.04400
H60         H  0.50407629  0.21466406  0.64864591     0.04400
O61         O  0.47636088  0.43484313  0.59766771    -0.71700
O62         O  0.47360620  0.99775117  0.57027021    -0.71900
O63         O  0.47541432  0.43404599  0.56967227    -0.71800
O64         O  0.47681600  0.99768285  0.59828716    -0.71800
O65         O  0.02639866  0.99746230  0.59709048    -0.71700
O66         O  0.02480163  0.43629869  0.56836139    -0.71800
O67         O  0.02301682  0.99705350  0.56908377    -0.71700
O68         O  0.02582148  0.43366884  0.59641269    -0.71900
V69         V  0.47616856  0.46526752  0.58341269     1.35200
V70         V  0.02373152  0.46589217  0.58305504     1.35200
C71         C  0.50147153  0.42320737  0.60166688     0.77500
C72         C  0.49785344  0.00807137  0.56490226     0.77600
C73         C  0.50004273  0.42447931  0.56426293     0.77500
C74         C  0.50201520  0.00831606  0.60243817     0.77400
C75         C  0.49600299  0.18793771  0.50052160     0.02400
C76         C  0.50068797  0.18742249  0.48593308     0.02300
C77         C  0.50304875  0.21526171  0.47866357    -0.18200
C78         C  0.50059022  0.24349825  0.48560480     0.02400
C79         C  0.49636619  0.24391122  0.50021065     0.02300
C80         C  0.49380389  0.21613293  0.50746917    -0.18200
H81         H  0.49097633  0.21644487  0.51870679     0.04400
H82         H  0.50586725  0.21496689  0.46742697     0.04400
C83         C  0.49876129  0.43841021  0.73900734     0.86600
C84         C  0.47267533  0.44397419  0.74952214    -0.53700
C85         C  0.47434750  0.47088790  0.75674232     0.09500
C86         C  0.00659283  0.98812145  0.75319057     0.20500
C87         C  0.99806252  0.46692014  0.72981024    -0.54400
C88         C  0.50221849  0.99307551  0.73740589     0.09600
C89         C  0.02799814  0.44162210  0.74790000    -0.53900
C90         C  0.03033827  0.46853593  0.75515370     0.10200
H91         H  0.45360414  0.42883416  0.75111544     0.14700
H92         H  0.00770034  0.00957578  0.75937507     0.00400
H93         H  0.99622593  0.46571723  0.71851879     0.15000
H94         H  0.04556660  0.42395966  0.74817225     0.14800
O95         O  0.01240729  0.43797756  0.38950130    -0.71700
O96         O  0.01972008  0.99674624  0.41623023    -0.71900
O97         O  0.01858252  0.43728440  0.41738286    -0.71800
O98         O  0.01399355  0.99769584  0.38831941    -0.71800
O99         O  0.46462909  0.99837373  0.39078868    -0.71700
O100        O  0.46925766  0.43824904  0.41969402    -0.71800
O101        O  0.47032718  0.99620897  0.41871320    -0.71700
O102        O  0.46308246  0.43836245  0.39182137    -0.71900
V103        V  0.01489919  0.46844473  0.40355383     1.35200
V104        V  0.46747904  0.46910107  0.40575962     1.35200
C105        C  0.98664227  0.42759969  0.38600308     0.77500
C106        C  0.99607242  0.00683485  0.42230860     0.77600
C107        C  0.99482038  0.42705358  0.42323241     0.77500
C108        C  0.98834108  0.00906410  0.38494626     0.77400
C109        C  0.98143245  0.19117251  0.30686556     0.02400
C110        C  0.97826970  0.19070126  0.32159946     0.02300
C111        C  0.97646334  0.21846234  0.32897578    -0.18200
C112        C  0.97888709  0.24676185  0.32217569     0.02400
C113        C  0.98243927  0.24737983  0.30753115     0.02300
C114        C  0.98333616  0.21965442  0.30009248    -0.18200
H115        H  0.98526717  0.22036684  0.28882414     0.04400
H116        H  0.97448406  0.21800303  0.34025227     0.04400
C117        C  0.99901009  0.43767893  0.24876362     0.86600
C118        C  0.02770005  0.44253249  0.23978102    -0.53700
C119        C  0.02941067  0.47034645  0.23323330     0.09500
C120        C  0.50509629  0.99081425  0.23710031     0.20500
C121        C  0.49795444  0.46579109  0.25842266    -0.54400
C122        C  0.00150013  0.99527610  0.25309168     0.09600
C123        C  0.47249178  0.44252637  0.23868787    -0.53900
C124        C  0.47258720  0.46994139  0.23170025     0.10200
H125        H  0.04509278  0.42533828  0.23841763     0.14700
H126        H  0.50473542  0.01276944  0.23134764     0.00400
H127        H  0.49647285  0.46411643  0.26970942     0.15000
H128        H  0.45420875  0.42603473  0.23788252     0.14800
C129        C  0.04127078  0.33700778  0.26573471    -0.17700
C130        C  0.03916033  0.31113303  0.27420955    -0.19900
C131        C  0.01365645  0.30697367  0.28281645     0.20700
C132        C  0.99013297  0.32922849  0.28298730    -0.02800
C133        C  0.99219500  0.35529473  0.27433823    -0.05900
C134        C  0.01786827  0.35915613  0.26568467     0.21000
C135        C  0.46881367  0.37731505  0.27440699     0.19200
C136        C  0.44339673  0.37316533  0.28311942    -0.17400
C137        C  0.44136683  0.34729939  0.29168425    -0.19600
C138        C  0.46465989  0.32503655  0.29165578     0.20700
C139        C  0.46254179  0.29859975  0.29994354    -0.32600
C140        C  0.98544087  0.27640282  0.29962224     0.01400
C141        C  0.01110032  0.28073318  0.29109371    -0.23900
C142        C  0.01999295  0.38515024  0.25719401    -0.28500
C143        C  0.99672543  0.40777469  0.25711411     0.07000
C144        C  0.47111919  0.40322670  0.26580195    -0.27200
H145        H  0.06121943  0.33964833  0.25917526     0.11800
H146        H  0.05744318  0.29429400  0.27398681     0.12900
H147        H  0.42505440  0.38993784  0.28330863     0.12000
H148        H  0.42147239  0.34461990  0.29827236     0.11200
H149        H  0.44261279  0.29510482  0.30643634     0.16600
H150        H  0.02897350  0.26342847  0.29084572     0.12500
H151        H  0.04022660  0.38723358  0.25092751     0.15400
H152        H  0.45299085  0.42026067  0.26593278     0.15100
C153        C  0.44768106  0.05916344  0.28795258    -0.17700
C154        C  0.44478975  0.08655970  0.29542429    -0.19900
C155        C  0.46442537  0.11107401  0.29273077     0.20700
C156        C  0.98674047  0.10849627  0.28222967    -0.02800
C157        C  0.98941698  0.08100722  0.27453563    -0.05900
C158        C  0.47004041  0.05591376  0.27754912     0.21000
C159        C  0.01154438  0.07825611  0.26387552     0.19200
C160        C  0.03060113  0.10309522  0.26095959    -0.17400
C161        C  0.02823625  0.13015920  0.26871573    -0.19600
C162        C  0.00656278  0.13299678  0.27943809     0.20700
C163        C  0.00468118  0.15971648  0.28753929    -0.32600
C164        C  0.98284866  0.16263229  0.29826434     0.01400
C165        C  0.46229671  0.13831162  0.30046798    -0.23900
C166        C  0.47374580  0.02821690  0.27030904    -0.28500
C167        C  0.99652459  0.02531056  0.26001741     0.07000
C168        C  0.01466275  0.05052891  0.25654651    -0.27200
H169        H  0.43254990  0.04042255  0.29038151     0.11800
H170        H  0.42747676  0.08841231  0.30345911     0.12900
H171        H  0.04767006  0.10143158  0.25281076     0.12000
H172        H  0.04352318  0.14882879  0.26638251     0.11200
H173        H  0.02056878  0.17812861  0.28563247     0.16600
H174        H  0.44457585  0.14077582  0.30827662     0.12500
H175        H  0.45913744  0.00906065  0.27276917     0.15400
H176        H  0.03196118  0.04817985  0.24852074     0.15100
C177        C  0.03332596  0.36331174  0.34915746    -0.17700
C178        C  0.03226068  0.33803447  0.34020400    -0.19900
C179        C  0.00617742  0.31961061  0.33967051     0.20700
C180        C  0.48098113  0.32673037  0.34805592    -0.02800
C181        C  0.48188188  0.35243646  0.35698908    -0.05900
C182        C  0.00826067  0.37071198  0.35767665     0.21000
C183        C  0.45646765  0.35969033  0.36546220     0.19200
C184        C  0.43040557  0.34124575  0.36490544    -0.17400
C185        C  0.42962947  0.31561045  0.35616841    -0.19600
C186        C  0.45480966  0.30809131  0.34775313     0.20700
C187        C  0.45439529  0.28210792  0.33915260    -0.32600
C188        C  0.97924582  0.27501395  0.33076508     0.01400
C189        C  0.00518751  0.29375377  0.33098219    -0.23900
C190        C  0.00945426  0.39552305  0.36695819    -0.28500
C191        C  0.98436000  0.40274580  0.37555752     0.07000
C192        C  0.45776910  0.38488259  0.37453572    -0.27200
H193        H  0.05385052  0.37697962  0.34947990     0.11800
H194        H  0.05196489  0.33272693  0.33378597     0.12900
H195        H  0.41071389  0.34646030  0.37134663     0.12000
H196        H  0.40935038  0.30157223  0.35603737     0.11200
H197        H  0.43448844  0.26751674  0.33900271     0.16600
H198        H  0.02476980  0.28779100  0.32458838     0.12500
H199        H  0.03004886  0.40906399  0.36757610     0.15400
H200        H  0.43839392  0.39014112  0.38117785     0.15100
C201        C  0.42945697  0.12050803  0.35505203    -0.17700
C202        C  0.43075284  0.09502881  0.36386168    -0.19900
C203        C  0.45722661  0.07675366  0.36450741     0.20700
C204        C  0.98235873  0.08416528  0.35598854    -0.02800
C205        C  0.98087264  0.10971409  0.34697722    -0.05900
C206        C  0.45452474  0.12804673  0.34665218     0.21000
C207        C  0.00618470  0.11710549  0.33853731     0.19200
C208        C  0.03260824  0.09876072  0.33910996    -0.17400
C209        C  0.03419111  0.07365278  0.34814488    -0.19600
C210        C  0.00929570  0.06628553  0.35669950     0.20700
C211        C  0.01101691  0.04163735  0.36607843    -0.32600
C212        C  0.98601940  0.03434297  0.37465253     0.01400
C213        C  0.45906607  0.05176354  0.37367643    -0.23900
C214        C  0.45377362  0.15414352  0.33814178    -0.28500
C215        C  0.97870044  0.16192649  0.32980700     0.07000
C216        C  0.00483562  0.14304978  0.32991205    -0.27200
H217        H  0.40890522  0.13447194  0.35489059     0.11800
H218        H  0.41115626  0.08983999  0.37031038     0.12900
H219        H  0.05222880  0.10407230  0.33269831     0.12000
H220        H  0.05500474  0.06010810  0.34851368     0.11200
H221        H  0.03187043  0.02818492  0.36673504     0.16600
H222        H  0.43973610  0.04652516  0.38029329     0.12500
H223        H  0.43370028  0.16882711  0.33805933     0.15400
H224        H  0.02435399  0.14909672  0.32356023     0.15100
C225        C  0.44680105  0.33476415  0.46714939    -0.17700
C226        C  0.44593954  0.36036963  0.45839294    -0.19900
C227        C  0.47173261  0.36857429  0.45058621     0.20700
C228        C  0.49878374  0.35099166  0.45175122    -0.02800
C229        C  0.49956018  0.32494419  0.46047998    -0.05900
C230        C  0.47340573  0.31677840  0.46819133     0.21000
C231        C  0.02625963  0.30672778  0.46124803     0.19200
C232        C  0.05219430  0.31524228  0.45363083    -0.17400
C233        C  0.05154131  0.34125269  0.44513048    -0.19600
C234        C  0.02486966  0.35911446  0.44400418     0.20700
C235        C  0.02373054  0.38460092  0.43509412    -0.32600
C236        C  0.99661681  0.40179007  0.43356656     0.01400
C237        C  0.47078642  0.39369673  0.44145763    -0.23900
C238        C  0.47420033  0.29053982  0.47663183    -0.28500
C239        C  0.50061484  0.27209903  0.47727338     0.07000
C240        C  0.02651048  0.28024913  0.46954631    -0.27200
H241        H  0.42652676  0.32883095  0.47299568     0.11800
H242        H  0.42500099  0.37364664  0.45765327     0.12900
H243        H  0.07296835  0.30166806  0.45418393     0.12000
H244        H  0.07182613  0.34719319  0.43929489     0.11200
H245        H  0.04372814  0.39051090  0.42903867     0.16600
H246        H  0.44980901  0.40683424  0.44040918     0.12500
H247        H  0.45409625  0.28400645  0.48248113     0.15400
H248        H  0.04686902  0.26601885  0.47007954     0.15100
C249        C  0.45281452  0.09089253  0.47067052    -0.17700
C250        C  0.45202962  0.06561822  0.46171101    -0.19900
C251        C  0.47591554  0.06019495  0.45224365     0.20700
C252        C  0.50133436  0.07986935  0.45213657    -0.02800
C253        C  0.50205901  0.10545599  0.46112990    -0.05900
C254        C  0.47745771  0.11121186  0.47028925     0.21000
C255        C  0.02701827  0.12561196  0.46079200     0.19200
C256        C  0.05138500  0.11965733  0.45166133    -0.17400
C257        C  0.05077059  0.09423810  0.44279992    -0.19600
C258        C  0.02572337  0.07440958  0.44287877     0.20700
C259        C  0.02421743  0.04984283  0.43349745    -0.32600
C260        C  0.99840896  0.03091702  0.43310254     0.01400
C261        C  0.47449417  0.03594830  0.44264717    -0.23900
C262        C  0.47751739  0.13763910  0.47859716    -0.28500
C263        C  0.50192331  0.15830577  0.47794540     0.07000
C264        C  0.02674617  0.15190137  0.46920140    -0.27200
H265        H  0.43386292  0.09486406  0.47772401     0.11800
H266        H  0.43247921  0.05059847  0.46202334     0.12900
H267        H  0.07072648  0.13492858  0.45122066     0.12000
H268        H  0.06965811  0.09039667  0.43569730     0.11200
H269        H  0.04268208  0.04613818  0.42614202     0.16600
H270        H  0.45469625  0.02121385  0.44252131     0.12500
H271        H  0.45806454  0.14272000  0.48520474     0.15400
H272        H  0.04558372  0.16781221  0.46871013     0.15100
C273        C  0.04900606  0.33542929  0.51851445    -0.17700
C274        C  0.04986109  0.36038694  0.52769966    -0.19900
C275        C  0.02430143  0.36798557  0.53589278     0.20700
C276        C  0.49750005  0.35034223  0.53466986    -0.02800
C277        C  0.49674160  0.32497562  0.52552785    -0.05900
C278        C  0.02266341  0.31745095  0.51742915     0.21000
C279        C  0.47022517  0.30685845  0.52469378     0.19200
C280        C  0.44448678  0.31473222  0.53265643    -0.17400
C281        C  0.44511118  0.34003777  0.54156148    -0.19600
C282        C  0.47156639  0.35776053  0.54274169     0.20700
C283        C  0.47261124  0.38243048  0.55205101    -0.32600
C284        C  0.49939806  0.39963906  0.55368920     0.01400
C285        C  0.02517351  0.39242630  0.54548311    -0.23900
C286        C  0.02200645  0.29153152  0.50874178    -0.28500
C287        C  0.49595983  0.27286087  0.50827257     0.07000
C288        C  0.47010585  0.28082091  0.51614947    -0.27200
H289        H  0.06912765  0.32991164  0.51240821     0.11800
H290        H  0.07062157  0.37360257  0.52847665     0.12900
H291        H  0.42393590  0.30114190  0.53209275     0.12000
H292        H  0.42500219  0.34550070  0.54768568     0.11200
H293        H  0.45265034  0.38774758  0.55831156     0.16600
H294        H  0.04589547  0.40559433  0.54663760     0.12500
H295        H  0.04205376  0.28515664  0.50274005     0.15400
H296        H  0.45004495  0.26646245  0.51571545     0.15100
C297        C  0.44052431  0.11013733  0.52789812    -0.17700
C298        C  0.44075659  0.08466140  0.53674663    -0.19900
C299        C  0.46844217  0.07051676  0.54054894     0.20700
C300        C  0.49609891  0.08163261  0.53503123    -0.02800
C301        C  0.49585021  0.10717101  0.52599573    -0.05900
C302        C  0.46795616  0.12182160  0.52261669     0.21000
C303        C  0.02364653  0.11865085  0.52079982     0.19200
C304        C  0.05127824  0.10427302  0.52444338    -0.17400
C305        C  0.05151318  0.07908887  0.53343358    -0.19600
C306        C  0.02410572  0.06773344  0.53888707     0.20700
C307        C  0.02430435  0.04324644  0.54834054    -0.32600
C308        C  0.49694901  0.03250368  0.55413600     0.01400
C309        C  0.46902572  0.04594168  0.55000674    -0.23900
C310        C  0.46809551  0.14816997  0.51422938    -0.28500
C311        C  0.49567713  0.15950097  0.50891415     0.07000
C312        C  0.02332804  0.14461204  0.51219667    -0.27200
H313        H  0.41888932  0.12092556  0.52531364     0.11800
H314        H  0.41928888  0.07633572  0.54080938     0.12900
H315        H  0.07277415  0.11277072  0.52048799     0.12000
H316        H  0.07319885  0.06868291  0.53624371     0.11200
H317        H  0.04594099  0.03309310  0.55142595     0.16600
H318        H  0.44779495  0.03777016  0.55439572     0.12500
H319        H  0.44684856  0.15992675  0.51181527     0.15400
H320        H  0.04457622  0.15366143  0.50819490     0.15100
C321        C  0.05443865  0.33483541  0.62350325    -0.17700
C322        C  0.05438307  0.30966235  0.63252930    -0.19900
C323        C  0.02872400  0.30343077  0.64079945     0.20700
C324        C  0.50298737  0.32267655  0.64001260    -0.02800
C325        C  0.00276213  0.34801858  0.63071186    -0.05900
C326        C  0.02872534  0.35411147  0.62247402     0.21000
C327        C  0.47666453  0.36674623  0.62963990     0.19200
C328        C  0.45102491  0.36047247  0.63792100    -0.17400
C329        C  0.45127097  0.33573509  0.64720023    -0.19600
C330        C  0.47708204  0.31663284  0.64831378     0.20700
C331        C  0.47730999  0.29138313  0.65741785    -0.32600
C332        C  0.50289512  0.27179813  0.65812757     0.01400
C333        C  0.02834204  0.27798977  0.64974859    -0.23900
C334        C  0.02839792  0.37913661  0.61325240    -0.28500
C335        C  0.50225383  0.39775579  0.61196772     0.07000
C336        C  0.47645146  0.39136522  0.62019997    -0.27200
H337        H  0.07454879  0.33909371  0.61724041     0.11800
H338        H  0.07443730  0.29502533  0.63302971     0.12900
H339        H  0.43071519  0.37470442  0.63721027     0.12000
H340        H  0.43114994  0.33141630  0.65344509     0.11200
H341        H  0.45736375  0.28645794  0.66369728     0.16600
H342        H  0.04796205  0.26273880  0.65022632     0.12500
H343        H  0.04831372  0.38363227  0.60688534     0.15400
H344        H  0.45617482  0.40560692  0.61927717     0.15100
C345        C  0.05763799  0.08851465  0.62859302    -0.17700
C346        C  0.05749271  0.11339025  0.63781648    -0.19900
C347        C  0.03019227  0.12322580  0.64412350     0.20700
C348        C  0.50263814  0.10759359  0.64124409    -0.02800
C349        C  0.50280800  0.08232874  0.63204360    -0.05900
C350        C  0.03051796  0.07288819  0.62557441     0.21000
C351        C  0.47528208  0.06719961  0.62893443     0.19200
C352        C  0.44792125  0.07726557  0.63509477    -0.17400
C353        C  0.44767062  0.10259471  0.64401102    -0.19600
C354        C  0.47484145  0.11802991  0.64706731     0.20700
C355        C  0.47461343  0.14407422  0.65561330    -0.32600
C356        C  0.50197099  0.15879733  0.65908458     0.01400
C357        C  0.02966394  0.14858361  0.65315693    -0.23900
C358        C  0.03032211  0.04824849  0.61613102    -0.28500
C359        C  0.50271329  0.03306892  0.61301843     0.07000
C360        C  0.47544915  0.04265215  0.61951661    -0.27200
H361        H  0.07896932  0.08157816  0.62376893     0.11800
H362        H  0.07871270  0.12511735  0.63992149     0.12900
H363        H  0.42660988  0.06582593  0.63284573     0.12000
H364        H  0.42618303  0.11020120  0.64847334     0.11200
H365        H  0.45308140  0.15328039  0.65935949     0.16600
H366        H  0.05056536  0.16078817  0.65539735     0.12500
H367        H  0.05138340  0.04124837  0.61107251     0.15400
H368        H  0.45417338  0.03129771  0.61708424     0.15100
C369        C  0.45282429  0.33714743  0.72563917    -0.17700
C370        C  0.45298821  0.31054013  0.71752960    -0.19900
C371        C  0.47612545  0.30537539  0.70766898     0.20700
C372        C  0.49940688  0.32721058  0.70600796    -0.02800
C373        C  0.49922964  0.35412550  0.71422824    -0.05900
C374        C  0.47577411  0.35913266  0.72404840     0.21000
C375        C  0.02219223  0.37596251  0.71267957     0.19200
C376        C  0.04553040  0.37055214  0.70290938    -0.17400
C377        C  0.04562859  0.34395084  0.69473225    -0.19600
C378        C  0.02239867  0.32222055  0.69616243     0.20700
C379        C  0.02233767  0.29539212  0.68803434    -0.32600
C380        C  0.49965736  0.27346379  0.68963909     0.01400
C381        C  0.47642921  0.27871199  0.69950060    -0.23900
C382        C  0.47550423  0.38598654  0.73209706    -0.28500
C383        C  0.49833108  0.40844754  0.73053039     0.07000
C384        C  0.02174391  0.40274840  0.72084275    -0.27200
H385        H  0.43462960  0.34056868  0.73315957     0.11800
H386        H  0.43497974  0.29398874  0.71896552     0.12900
H387        H  0.06370953  0.38694896  0.70156659     0.12000
H388        H  0.06389002  0.34039013  0.68727022     0.11200
H389        H  0.04066368  0.29116502  0.68067089     0.16600
H390        H  0.45855357  0.26192828  0.70079397     0.12500
H391        H  0.45718236  0.38872798  0.73950454     0.15400
H392        H  0.03968598  0.41944497  0.71954143     0.15100
C393        C  0.45200080  0.08959640  0.69564939    -0.17700
C394        C  0.45229445  0.06249456  0.70341916    -0.19900
C395        C  0.47547695  0.05680708  0.71323144     0.20700
C396        C  0.99860074  0.07882598  0.71518792    -0.02800
C397        C  0.99857782  0.10591389  0.70710152    -0.05900
C398        C  0.47515254  0.11130910  0.69738403     0.21000
C399        C  0.02208184  0.12750984  0.70879284     0.19200
C400        C  0.04499849  0.12212150  0.71877958    -0.17400
C401        C  0.04475505  0.09553569  0.72694583    -0.19600
C402        C  0.02179597  0.07361391  0.72517572     0.20700
C403        C  0.02199514  0.04630093  0.73296433    -0.32600
C404        C  0.49969164  0.02361102  0.73061280     0.01400
C405        C  0.47643570  0.02927521  0.72077660    -0.23900
C406        C  0.47528645  0.13832063  0.68944873    -0.28500
C407        C  0.49926955  0.15938254  0.69065850     0.07000
C408        C  0.02227913  0.15400368  0.70044293    -0.27200
H409        H  0.43386883  0.09338431  0.68813146     0.11800
H410        H  0.43441657  0.04590940  0.70171351     0.12900
H411        H  0.06317322  0.13847720  0.72026903     0.12000
H412        H  0.06277818  0.09193716  0.73453502     0.11200
H413        H  0.03999841  0.04207516  0.74048087     0.16600
H414        H  0.45924814  0.01202635  0.71890939     0.12500
H415        H  0.45639396  0.14316301  0.68252583     0.15400
H416        H  0.04051927  0.17043819  0.70160265     0.15100
C417        C  0.39928308  0.43820093  0.79173804    -0.17700
C418        C  0.37120410  0.44218660  0.79846726    -0.19900
C419        C  0.35477084  0.46968398  0.79708794     0.20700
C420        C  0.36711035  0.49373003  0.78910886    -0.02800
C421        C  0.39559713  0.48969697  0.78229651    -0.05900
C422        C  0.41145013  0.46162877  0.78349090     0.21000
C423        C  0.40960312  0.00410239  0.77373375     0.19200
C424        C  0.39039516  0.02958672  0.77167504    -0.17400
C425        C  0.36212516  0.03175686  0.77849884    -0.19600
C426        C  0.35247132  0.00851034  0.78754106     0.20700
C427        C  0.32375622  0.01010139  0.79415705    -0.32600
C428        C  0.31441930  0.98676501  0.80325495     0.01400
C429        C  0.32613321  0.47339472  0.80347365    -0.23900
C430        C  0.43852144  0.45689742  0.77595990    -0.28500
C431        C  0.44993608  0.47951146  0.76695460     0.07000
C432        C  0.43503395  0.50816590  0.76639734    -0.27200
H433        H  0.41123365  0.41653054  0.79277749     0.11800
H434        H  0.36214656  0.42357878  0.80462199     0.12900
H435        H  0.39701291  0.04764396  0.76459296     0.12000
H436        H  0.34764202  0.05151116  0.77657881     0.11200
H437        H  0.30884180  0.02963233  0.79241585     0.16600
H438        H  0.31663585  0.45487097  0.80955356     0.12500
H439        H  0.45006844  0.43491233  0.77658915     0.15400
H440        H  0.44351614  0.01781938  0.75858309     0.15100
C441        C  0.11183484  0.43178787  0.78706621    -0.17700
C442        C  0.13903305  0.43646058  0.79442528    -0.19900
C443        C  0.15300837  0.46522988  0.79443333     0.20700
C444        C  0.13917707  0.48967768  0.78710132    -0.02800
C445        C  0.11144684  0.48502744  0.77979917    -0.05900
C446        C  0.09795753  0.45585474  0.77966262     0.21000
C447        C  0.11018687  0.99979655  0.76831114     0.19200
C448        C  0.13169740  0.02232096  0.76498004    -0.17400
C449        C  0.15916227  0.02451778  0.77247092    -0.19600
C450        C  0.16572286  0.00424659  0.78346056     0.20700
C451        C  0.19326470  0.00625208  0.79105569    -0.32600
C452        C  0.19958587  0.98594628  0.80212587     0.01400
C453        C  0.18058483  0.46993914  0.80160509    -0.23900
C454        C  0.07111580  0.45106729  0.77195266    -0.28500
C455        C  0.05721616  0.47503305  0.76436466     0.07000
C456        C  0.08281117  0.99690727  0.76063871    -0.27200
H457        H  0.10172306  0.40925518  0.78710556     0.11800
H458        H  0.14929066  0.41746504  0.80001946     0.12900
H459        H  0.12734977  0.03818072  0.75651944     0.12000
H460        H  0.17532983  0.04207738  0.76963935     0.11200
H461        H  0.20961269  0.02386641  0.78850406     0.16600
H462        H  0.19113394  0.45128914  0.80734712     0.12500
H463        H  0.06107804  0.42849684  0.77181348     0.15400
H464        H  0.07831375  0.01195836  0.75190349     0.15100
C465        C  0.38295627  0.94945221  0.86860636    -0.17700
C466        C  0.35734493  0.94624791  0.85998156    -0.19900
C467        C  0.34814228  0.97014578  0.85112322     0.20700
C468        C  0.36541472  0.99726971  0.85069910    -0.02800
C469        C  0.39107619  0.00063732  0.85953112    -0.05900
C470        C  0.39970136  0.97670501  0.86861469     0.21000
C471        C  0.40765894  0.02818774  0.85948727     0.19200
C472        C  0.39908861  0.05168171  0.85027256    -0.17400
C473        C  0.37389833  0.04822009  0.84141350    -0.19600
C474        C  0.35667103  0.02129617  0.84167799     0.20700
C475        C  0.33054064  0.01820376  0.83329381    -0.32600
C476        C  0.31274802  0.99164418  0.83399168     0.01400
C477        C  0.32172963  0.96763397  0.84286204    -0.23900
C478        C  0.42444998  0.98068482  0.87777006    -0.28500
C479        C  0.44042730  0.00850094  0.87817579     0.07000
C480        C  0.43209894  0.03199504  0.86884319    -0.27200
H481        H  0.38935269  0.93078184  0.87546015     0.11800
H482        H  0.34771502  0.43315596  0.85140406     0.12900
H483        H  0.41167292  0.07290634  0.85002652     0.12000
H484        H  0.36758595  0.06682911  0.83450912     0.11200
H485        H  0.32355405  0.03670133  0.82644580     0.16600
H486        H  0.30808819  0.94707503  0.84330616     0.12500
H487        H  0.43069566  0.96240225  0.88487305     0.15400
H488        H  0.44442638  0.05339282  0.86895948     0.15100
C489        C  0.13965080  0.95521002  0.87329886    -0.17700
C490        C  0.16490176  0.95196548  0.86446259    -0.19900
C491        C  0.16923172  0.97228074  0.85332265     0.20700
C492        C  0.14776850  0.99597581  0.85099110    -0.02800
C493        C  0.12240074  0.99941632  0.85999129    -0.05900
C494        C  0.11835302  0.97891799  0.87119438     0.21000
C495        C  0.10139554  0.02364277  0.85791192     0.19200
C496        C  0.10554089  0.04373078  0.84666865    -0.17400
C497        C  0.13053488  0.04017608  0.83768917    -0.19600
C498        C  0.15194028  0.01657546  0.83983319     0.20700
C499        C  0.17777047  0.01362868  0.83122193    -0.32600
C500        C  0.19952875  0.99036987  0.83362714     0.01400
C501        C  0.19492074  0.96965041  0.84463711    -0.23900
C502        C  0.09337499  0.98276839  0.88022409    -0.28500
C503        C  0.07277301  0.00729016  0.87842446     0.07000
C504        C  0.07688892  0.02759198  0.86721760    -0.27200
H505        H  0.13693735  0.93933017  0.88186950     0.11800
H506        H  0.18117501  0.93366095  0.86640204     0.12900
H507        H  0.08956085  0.06236303  0.84487813     0.12000
H508        H  0.13332760  0.05613920  0.82915763     0.11200
H509        H  0.18142923  0.02991605  0.82288445     0.16600
H510        H  0.21161488  0.95167207  0.84651602     0.12500
H511        H  0.09048197  0.96721186  0.88891477     0.15400
H512        H  0.06101038  0.04646889  0.86575128     0.15100
C513        C  0.39578809  0.04219092  0.22096273    -0.17700
C514        C  0.36789687  0.04871999  0.21439532    -0.19900
C515        C  0.35431949  0.02722901  0.20549655     0.20700
C516        C  0.36345545  0.50590454  0.20258425    -0.02800
C517        C  0.39145011  0.49738074  0.20893159    -0.05900
C518        C  0.41058179  0.01397858  0.21882009     0.21000
C519        C  0.39937003  0.46621599  0.21018643     0.19200
C520        C  0.37931126  0.44383227  0.20519410    -0.17400
C521        C  0.35135678  0.45221101  0.19920706    -0.19600
C522        C  0.34319285  0.48313627  0.19787947     0.20700
C523        C  0.31519466  0.49163647  0.19186218    -0.32600
C524        C  0.30754354  0.52257396  0.19000771     0.01400
C525        C  0.32637543  0.03367172  0.19881471    -0.23900
C526        C  0.43821013  0.00699287  0.22565993    -0.28500
C527        C  0.44612407  0.47990148  0.22273783     0.07000
C528        C  0.42685484  0.45780537  0.21669172    -0.27200
H529        H  0.40570975  0.05917494  0.22780274     0.11800
H530        H  0.35694021  0.07063626  0.21627433     0.12900
H531        H  0.38503957  0.41977072  0.20611720     0.12000
H532        H  0.33612850  0.43447295  0.19558493     0.11200
H533        H  0.29957594  0.47419956  0.18825034     0.16600
H534        H  0.31501879  0.05548814  0.20047933     0.12500
H535        H  0.44804866  0.02344210  0.23280302     0.15400
H536        H  0.43277185  0.43376703  0.21727706     0.15100
C537        C  0.16609213  0.46351646  0.21539689    -0.17700
C538        C  0.13960379  0.45582168  0.22265446    -0.19900
C539        C  0.11253083  0.47274294  0.22076006     0.20700
C540        C  0.11217074  0.49785797  0.21161019    -0.02800
C541        C  0.13925444  0.50621245  0.20456696    -0.05900
C542        C  0.16618191  0.48870139  0.20636533     0.21000
C543        C  0.14527028  0.02756214  0.19586559     0.19200
C544        C  0.11854183  0.04519636  0.19403047    -0.17400
C545        C  0.09154137  0.03795382  0.20122206    -0.19600
C546        C  0.08487227  0.51465430  0.20956141     0.20700
C547        C  0.05782135  0.50557795  0.21640777    -0.32600
C548        C  0.05788534  0.48037427  0.22563461     0.01400
C549        C  0.08591975  0.46481760  0.22792252    -0.23900
C550        C  0.19276312  0.49653720  0.19910676    -0.28500
C551        C  0.19347540  0.52240463  0.19039296     0.07000
C552        C  0.17261207  0.03449467  0.18874762    -0.27200
H553        H  0.18659313  0.44988209  0.21693189     0.11800
H554        H  0.14021397  0.43638205  0.22965173     0.12900
H555        H  0.11845732  0.06451692  0.18696541     0.12000
H556        H  0.07129066  0.05185483  0.19952187     0.11200
H557        H  0.04316830  0.01867793  0.21605098     0.16600
H558        H  0.08770330  0.44653544  0.23544383     0.12500
H559        H  0.21295099  0.48222160  0.20017557     0.15400
H560        H  0.17334011  0.05435961  0.18202757     0.15100
C561        C  0.38186572  0.99616762  0.97487892    -0.17700
C562        C  0.40736425  0.99411958  0.96613510    -0.19900
C563        C  0.41262321  0.01656594  0.95598161     0.20700
C564        C  0.39261033  0.04192055  0.95495989    -0.02800
C565        C  0.36680527  0.04395058  0.96377163    -0.05900
C566        C  0.36119432  0.02069305  0.97361619     0.21000
C567        C  0.34618215  0.06875776  0.96244793     0.19200
C568        C  0.35203561  0.09173468  0.95261157    -0.17400
C569        C  0.37767040  0.08978281  0.94391481    -0.19600
C570        C  0.39786918  0.06476897  0.94486748     0.20700
C571        C  0.42264934  0.06169637  0.93563365    -0.32600
C572        C  0.44180525  0.03572216  0.93616574     0.01400
C573        C  0.43698500  0.01359921  0.94656351    -0.23900
C574        C  0.33466887  0.02197221  0.98179345    -0.28500
C575        C  0.31379738  0.04641720  0.98043633     0.07000
C576        C  0.31981534  0.06982704  0.97079196    -0.27200
H577        H  0.37802551  0.97827363  0.98247324     0.11800
H578        H  0.42266686  0.97465090  0.96713784     0.12900
H579        H  0.33653398  0.11101612  0.95150186     0.12000
H580        H  0.38139224  0.10758100  0.93626275     0.11200
H581        H  0.42626506  0.07887694  0.92767320     0.16600
H582        H  0.45190219  0.99373463  0.94716368     0.12500
H583        H  0.32986897  0.00355938  0.98900637     0.15400
H584        H  0.30379405  0.08871433  0.96972889     0.15100
C585        C  0.13633403  0.08790235  0.94329040    -0.17700
C586        C  0.16158453  0.09034646  0.95217832    -0.19900
C587        C  0.16788736  0.06751406  0.96207054     0.20700
C588        C  0.14834939  0.04209223  0.96311518    -0.02800
C589        C  0.12296429  0.03952660  0.95407828    -0.05900
C590        C  0.11698352  0.06252506  0.94409712     0.21000
C591        C  0.10390013  0.01371916  0.95487923     0.19200
C592        C  0.11000530  0.99103874  0.96487913    -0.17400
C593        C  0.13506664  0.99364088  0.97386679    -0.19600
C594        C  0.15451312  0.01892750  0.97298859     0.20700
C595        C  0.18038022  0.02111014  0.98158151    -0.32600
C596        C  0.20016299  0.04619228  0.98048579     0.01400
C597        C  0.19366722  0.06937353  0.97075172    -0.23900
C598        C  0.09208407  0.05951188  0.93495144    -0.28500
C599        C  0.07337441  0.03352794  0.93547121     0.07000
C600        C  0.07936134  0.01082160  0.94553692    -0.27200
H601        H  0.13211003  0.10574611  0.93568152     0.11800
H602        H  0.17633538  0.11001237  0.95123967     0.12900
H603        H  0.08624957  0.46842760  0.96625084     0.12000
H604        H  0.12994153  0.47159833  0.98219554     0.11200
H605        H  0.18569692  0.00279611  0.98881385     0.16600
H606        H  0.20895711  0.08865115  0.96984345     0.12500
H607        H  0.08775794  0.07701613  0.92718273     0.15400
H608        H  0.06499408  0.99077771  0.94605620     0.15100
C609        C  0.35059708  0.59529151  0.13835873    -0.17700
C610        C  0.37561671  0.59526000  0.12927065    -0.19900
C611        C  0.39174053  0.56806395  0.12646394     0.20700
C612        C  0.38257096  0.54062113  0.13290220    -0.02800
C613        C  0.36393865  0.02693680  0.14179772    -0.05900
C614        C  0.34131402  0.56814838  0.14483894     0.21000
C615        C  0.34500303  0.00095012  0.14199491     0.19200
C616        C  0.35171515  0.97608639  0.13323146    -0.17400
C617        C  0.37690030  0.97695495  0.12428049    -0.19600
C618        C  0.39568600  0.00279278  0.12386467     0.20700
C619        C  0.42068112  0.00396946  0.11474272    -0.32600
C620        C  0.43247149  0.54035331  0.11430071     0.01400
C621        C  0.41670707  0.56778248  0.11726315    -0.23900
C622        C  0.31596418  0.56785990  0.15381210    -0.28500
C623        C  0.30674789  0.54052159  0.16016350     0.07000
C624        C  0.31941033  0.00048990  0.15077671    -0.27200
H625        H  0.33844939  0.61655532  0.14029196     0.11800
H626        H  0.38228614  0.61651568  0.12438782     0.12900
H627        H  0.33740708  0.95598387  0.13326351     0.12000
H628        H  0.38155457  0.95747854  0.11759518     0.11200
H629        H  0.42549498  0.98463571  0.10798208     0.16600
H630        H  0.42359969  0.58885534  0.11227053     0.12500
H631        H  0.30314906  0.58874523  0.15575983     0.15400
H632        H  0.30443200  0.98085741  0.15077632     0.15100
C633        C  0.13527002  0.48578583  0.14682508    -0.17700
C634        C  0.10983179  0.48597043  0.13797769    -0.19900
C635        C  0.10060022  0.51300522  0.13124709     0.20700
C636        C  0.11706298  0.54017492  0.13351077    -0.02800
C637        C  0.14874547  0.03124848  0.14193885    -0.05900
C638        C  0.15197893  0.51260074  0.14905014     0.19200
C639        C  0.16662848  0.05766774  0.14379368     0.19200
C640        C  0.15849871  0.08478891  0.13686374    -0.17400
C641        C  0.13292551  0.08573441  0.12810467    -0.19600
C642        C  0.11515659  0.05952469  0.12606635     0.20700
C643        C  0.08988440  0.06007985  0.11704630    -0.32600
C644        C  0.06645455  0.54032982  0.11530624     0.01400
C645        C  0.07548029  0.51324400  0.12214194    -0.23900
C646        C  0.17779051  0.51251056  0.15773146    -0.28500
C647        C  0.19459806  0.53938020  0.15978367     0.07000
C648        C  0.19247084  0.05637844  0.15243420    -0.27200
H649        H  0.14198420  0.46461115  0.15186854     0.11800
H650        H  0.09744089  0.46491421  0.13635303     0.12900
H651        H  0.17198123  0.10526065  0.13818552     0.12000
H652        H  0.12718227  0.10692061  0.12283388     0.11200
H653        H  0.08404624  0.08101704  0.11158051     0.16600
H654        H  0.06315595  0.49223333  0.12026156     0.12500
H655        H  0.18508896  0.49152000  0.16278865     0.15400
H656        H  0.20654661  0.07645762  0.15378738     0.15100
C657        C  0.38301220  0.08523242  0.01990436    -0.17700
C658        C  0.40833375  0.08381407  0.02880598    -0.19900
C659        C  0.41280285  0.05854640  0.03761114     0.20700
C660        C  0.39198729  0.03408163  0.03719017    -0.02800
C661        C  0.36625002  0.03567630  0.02833303    -0.05900
C662        C  0.36161133  0.06151594  0.01973845     0.21000
C663        C  0.34481252  0.01174565  0.02832787     0.19200
C664        C  0.34892083  0.48214702  0.03623462    -0.17400
C665        C  0.37432941  0.48257754  0.04507032    -0.19600
C666        C  0.39647058  0.00835565  0.04586381     0.20700
C667        C  0.41755027  0.50957673  0.05512554    -0.32600
C668        C  0.44155685  0.03230866  0.05588843     0.01400
C669        C  0.43729529  0.05762044  0.04705497    -0.23900
C670        C  0.33533661  0.06345343  0.01137338    -0.28500
C671        C  0.31357916  0.04000761  0.01160620     0.07000
C672        C  0.31856657  0.01415215  0.02001359    -0.27200
H673        H  0.37988533  0.10513949  0.01332221     0.11800
H674        H  0.42423273  0.10267372  0.02892899     0.12900
H675        H  0.33482501  0.46190528  0.03591711     0.12000
H676        H  0.37936858  0.46263932  0.05139199     0.11200
H677        H  0.42255087  0.48986527  0.06161143     0.16600
H678        H  0.45292037  0.07669468  0.04762389     0.12500
H679        H  0.33139301  0.08344987  0.00492240     0.15400
H680        H  0.30185451  0.99598260  0.02009087     0.15100
C681        C  0.12645367  0.48125576  0.04391382    -0.17700
C682        C  0.15188111  0.48088871  0.03507767    -0.19900
C683        C  0.16083927  0.50755687  0.02811126     0.20700
C684        C  0.14901898  0.03868873  0.02908825    -0.02800
C685        C  0.12356868  0.03746843  0.03812111    -0.05900
C686        C  0.10969825  0.50836133  0.04603221     0.21000
C687        C  0.10570049  0.06395720  0.04050055     0.19200
C688        C  0.11309362  0.09125066  0.03362330    -0.17400
C689        C  0.13810782  0.09237822  0.02454492    -0.19600
C690        C  0.15631888  0.06629140  0.02226008     0.20700
C691        C  0.18197102  0.06738735  0.01347016    -0.32600
C692        C  0.20066693  0.04142157  0.01170513     0.01400
C693        C  0.18664594  0.50753890  0.01943103    -0.23900
C694        C  0.08459202  0.50905827  0.05512543    -0.28500
C695        C  0.07373121  0.03535966  0.05673006     0.07000
C696        C  0.08101269  0.06277292  0.04983762    -0.27200
H697        H  0.12005037  0.46037429  0.04919436     0.11800
H698        H  0.16460150  0.45974290  0.03372173     0.12900
H699        H  0.09959201  0.11179088  0.03531306     0.12000
H700        H  0.14339433  0.11375579  0.01941631     0.11200
H701        H  0.18792424  0.08854910  0.00829395     0.16600
H702        H  0.20011561  0.48682083  0.01812667     0.12500
H703        H  0.07808180  0.48836414  0.06054194     0.15400
H704        H  0.06755310  0.08324414  0.05178694     0.15100
O705        O  0.03712707  0.00863592  0.09971368    -0.71700
O706        O  0.47744435  0.00770547  0.07097680    -0.71900
O707        O  0.03883974  0.00939575  0.07177103    -0.71800
O708        O  0.47563532  0.00691837  0.09882601    -0.71800
O709        O  0.46881591  0.56435695  0.09923997    -0.71700
O710        O  0.03177209  0.56243170  0.07191616    -0.71800
O711        O  0.47042706  0.56239374  0.07124453    -0.71700
O712        O  0.03053329  0.56439344  0.09986890    -0.71900
V713        V  0.00720452  0.00935041  0.08537409     1.35200
V714        V  0.50044259  0.56238456  0.08562618     1.35200
C715        C  0.04767229  0.03350661  0.10433739     0.77500
C716        C  0.45997032  0.53720099  0.06693746     0.77600
C717        C  0.04289764  0.53727199  0.06771975     0.77500
C718        C  0.46449691  0.03132779  0.10384720     0.77400
C719        C  0.22338358  0.53450746  0.00382577     0.02400
C720        C  0.22270327  0.53897110  0.98920911     0.02300
C721        C  0.25048908  0.54129589  0.98190790    -0.18200
C722        C  0.27872002  0.53881701  0.98880306     0.02400
C723        C  0.27925026  0.53437087  0.00338639     0.02300
C724        C  0.25159990  0.53205217  0.01069774    -0.18200
H725        H  0.25203673  0.52920651  0.02193569     0.04400
H726        H  0.25018207  0.54388924  0.97066063     0.04400
C727        C  0.22806449  0.02153762  0.18245609     0.02400
C728        C  0.22843497  0.02766762  0.16792060     0.02300
C729        C  0.25048183  0.54450375  0.16181612    -0.18200
C730        C  0.28427095  0.02542174  0.16782280     0.02400
C731        C  0.28436391  0.01948058  0.18227119     0.02300
C732        C  0.25638486  0.01828996  0.18947657    -0.18200
H733        H  0.25672039  0.01362478  0.20057646     0.04400
H734        H  0.25050257  0.55047197  0.15083351     0.04400
O735        O  0.03715435  0.00329267  0.92307525    -0.71700
O736        O  0.47576821  0.99111019  0.89562616    -0.71900
O737        O  0.03735862  0.99047303  0.89572533    -0.71800
O738        O  0.47609207  0.00414684  0.92308921    -0.71800
O739        O  0.47091452  0.55167627  0.91939359    -0.71700
O740        O  0.03140253  0.54323837  0.89100483    -0.71800
O741        O  0.46983945  0.54398067  0.89164012    -0.71700
O742        O  0.03250908  0.55127269  0.91879422    -0.71900
V743        V  0.00648523  0.99827631  0.90925966     1.35200
V744        V  0.50121511  0.54660797  0.90525180     1.35200
C745        C  0.04261518  0.52807722  0.92523967     0.77500
C746        C  0.45945806  0.51814709  0.88820169     0.77600
C747        C  0.04278497  0.51730326  0.88808361     0.77500
C748        C  0.45988022  0.52832790  0.92529083     0.77400
C749        C  0.22362867  0.50315392  0.80933602     0.02400
C750        C  0.22330769  0.50441508  0.82408963     0.02300
C751        C  0.25107320  0.50577999  0.83137380    -0.18200
C752        C  0.27915213  0.50568304  0.82435165     0.02400
C753        C  0.27984629  0.50434970  0.80962583     0.02300
C754        C  0.25193947  0.50339900  0.80223497    -0.18200
H755        H  0.25227686  0.50149851  0.79096321     0.04400
H756        H  0.25084491  0.50694276  0.84267660     0.04400
C757        C  0.50486464  0.68803826  0.68107148     0.02400
C758        C  0.50320079  0.68741513  0.66631097     0.02300
C759        C  0.50456998  0.71500829  0.65884549    -0.18200
C760        C  0.50700250  0.74328795  0.66570899     0.02400
C761        C  0.50780162  0.74417913  0.68044280     0.02300
C762        C  0.50707518  0.71647249  0.68791329    -0.18200
H763        H  0.50759519  0.71711454  0.69921817     0.04400
H764        H  0.50357140  0.71448244  0.64754208     0.04400
O765        O  0.47698671  0.93613590  0.59833143    -0.71700
O766        O  0.47415333  0.49564593  0.56917028    -0.71900
O767        O  0.47357225  0.93615714  0.57044472    -0.71800
O768        O  0.47483728  0.49655685  0.59717906    -0.71800
O769        O  0.02437746  0.49552490  0.59773685    -0.71700
O770        O  0.02280895  0.93562993  0.56916794    -0.71800
O771        O  0.02361910  0.49794393  0.56962386    -0.71700
O772        O  0.02638901  0.93560922  0.59708392    -0.71900
V773        V  0.47621955  0.96696347  0.58431558     1.35200
V774        V  0.02369641  0.96647185  0.58314728     1.35200
C775        C  0.50230723  0.92499660  0.60231878     0.77500
C776        C  0.49855361  0.50756017  0.56472615     0.77600
C777        C  0.49773725  0.92526082  0.56514468     0.77500
C778        C  0.49945480  0.50660276  0.60226384     0.77400
C779        C  0.49500913  0.69000048  0.50169450     0.02400
C780        C  0.50178278  0.68940642  0.48728966     0.02300
C781        C  0.50460425  0.71705452  0.47995879    -0.18200
C782        C  0.50031320  0.74529014  0.48666008     0.02400
C783        C  0.49344939  0.74579932  0.50105243     0.02300
C784        C  0.49071428  0.71818832  0.50839707    -0.18200
H785        H  0.48639568  0.71867428  0.51953453     0.04400
H786        H  0.50901712  0.71656945  0.46883047     0.04400
C787        C  0.50365246  0.93715902  0.73859847     0.86600
C788        C  0.47850855  0.94047908  0.74978623    -0.53700
C789        C  0.47961729  0.96692727  0.75735641     0.09500
C790        C  0.00264839  0.49030256  0.75283734     0.20500
C791        C  0.00112733  0.96658700  0.72985654    -0.54400
C792        C  0.50004572  0.49406340  0.73677130     0.09600
C793        C  0.03359093  0.94097409  0.74698814    -0.53900
C794        C  0.03531594  0.96741782  0.75456299     0.10200
H795        H  0.46077633  0.92404176  0.75175913     0.14700
H796        H  0.00407243  0.51225941  0.75861483     0.00400
H797        H  0.99843291  0.96626151  0.71859166     0.15000
H798        H  0.05174235  0.92389490  0.74702884     0.14800
O799        O  0.01433784  0.93619851  0.38795975    -0.71700
O800        O  0.01944952  0.49904479  0.41747464    -0.71900
O801        O  0.01978261  0.93501693  0.41586697    -0.71800
O802        O  0.01299106  0.49937681  0.38959781    -0.71800
O803        O  0.46366107  0.50015566  0.39195932    -0.71700
O804        O  0.47015723  0.93489924  0.41774356    -0.71800
O805        O  0.47008178  0.49961415  0.41982278    -0.71700
O806        O  0.46472723  0.93662391  0.38987046    -0.71900
V807        V  0.01600072  0.96643831  0.40214388     1.35200
V808        V  0.46841768  0.96652962  0.40421084     1.35200
C809        C  0.98876523  0.92590577  0.38414088     0.77500
C810        C  0.99599597  0.50998866  0.42339769     0.77600
C811        C  0.99594219  0.92409673  0.42137339     0.77500
C812        C  0.98734715  0.51052192  0.38607897     0.77400
C813        C  0.98155558  0.68856747  0.30577926     0.02400
C814        C  0.97805486  0.68786993  0.32048677     0.02300
C815        C  0.97724421  0.71541496  0.32799371    -0.18200
C816        C  0.98093940  0.74365957  0.32135000     0.02400
C817        C  0.98453034  0.74467578  0.30671572     0.02300
C818        C  0.98454653  0.71712043  0.29912090    -0.18200
H819        H  0.98665094  0.71799303  0.28786300     0.04400
H820        H  0.97509528  0.71478568  0.33926360     0.04400
C821        C  0.00454292  0.93956357  0.25123012     0.86600
C822        C  0.03380515  0.94476838  0.24274860    -0.53700
C823        C  0.03516699  0.97184199  0.23554536     0.09500
C824        C  0.50035826  0.49017966  0.23565968     0.20500
C825        C  0.50115101  0.96807627  0.26019585    -0.54400
C826        C  0.99800526  0.49311659  0.25164397     0.09600
C827        C  0.47850616  0.94239168  0.24026875    -0.53900
C828        C  0.47854713  0.96927650  0.23299508     0.10200
H829        H  0.05201211  0.92830665  0.24244354     0.14700
H830        H  0.50063357  0.51263139  0.23037819     0.00400
H831        H  0.49877380  0.96720207  0.27146660     0.15000
H832        H  0.46069287  0.92542040  0.23911394     0.14800
C833        C  0.04372789  0.83552729  0.26540411    -0.17700
C834        C  0.04097315  0.80871857  0.27321537    -0.19900
C835        C  0.01650023  0.80510590  0.28247810     0.20700
C836        C  0.99491598  0.82900903  0.28409233    -0.02800
C837        C  0.99772543  0.85611459  0.27618944    -0.05900
C838        C  0.02208607  0.85923979  0.26673415     0.21000
C839        C  0.47521676  0.87934769  0.27722871     0.19200
C840        C  0.45116846  0.87602285  0.28678081    -0.17400
C841        C  0.44842148  0.84920586  0.29464515    -0.19600
C842        C  0.46964915  0.82521783  0.29308298     0.20700
C843        C  0.46650328  0.79780542  0.30054524    -0.32600
C844        C  0.98822508  0.77407676  0.29910953     0.01400
C845        C  0.01301871  0.77785672  0.28999487    -0.23900
C846        C  0.02433421  0.88577583  0.25861204    -0.28500
C847        C  0.00269191  0.90987000  0.25980414     0.07000
C848        C  0.47773904  0.90585042  0.26902961    -0.27200
H849        H  0.06269767  0.83760722  0.25822286     0.11800
H850        H  0.05781837  0.79066297  0.27189524     0.12900
H851        H  0.43433048  0.89408287  0.28809549     0.12000
H852        H  0.42951579  0.84711371  0.30185947     0.11200
H853        H  0.44720832  0.79490744  0.30747922     0.16600
H854        H  0.02955734  0.75946789  0.28874996     0.12500
H855        H  0.04274255  0.88652260  0.25120458     0.15400
H856        H  0.46072783  0.92385525  0.27006799     0.15100
C857        C  0.44699643  0.55696663  0.28725031    -0.17700
C858        C  0.44425972  0.58443347  0.29465838    -0.19900
C859        C  0.46415588  0.60872699  0.29196341     0.20700
C860        C  0.98644727  0.60557631  0.28147347    -0.02800
C861        C  0.98892862  0.57798318  0.27387468    -0.05900
C862        C  0.46942846  0.55347215  0.27690468     0.21000
C863        C  0.01141997  0.57473995  0.26340311     0.19200
C864        C  0.03127916  0.59904066  0.26069224    -0.17400
C865        C  0.02912049  0.62620113  0.26837395    -0.19600
C866        C  0.00686626  0.62965311  0.27880485     0.20700
C867        C  0.00496436  0.65658776  0.28673365    -0.32600
C868        C  0.98258513  0.66009654  0.29716821     0.01400
C869        C  0.46196136  0.63613820  0.29953623    -0.23900
C870        C  0.47252758  0.52593345  0.26953074    -0.28500
C871        C  0.99461670  0.52260144  0.25909978     0.07000
C872        C  0.01384322  0.54716574  0.25594514    -0.27200
H873        H  0.43157081  0.53843171  0.28962230     0.11800
H874        H  0.42678618  0.58655731  0.30260724     0.12900
H875        H  0.04868370  0.59693791  0.25271191     0.12000
H876        H  0.04492577  0.64451041  0.26617283     0.11200
H877        H  0.02129234  0.67466952  0.28494972     0.16600
H878        H  0.44400988  0.63891536  0.30721427     0.12500
H879        H  0.45742888  0.50706761  0.27183986     0.15400
H880        H  0.03118122  0.54449017  0.24795440     0.15100
C881        C  0.03797314  0.85757741  0.34945316    -0.17700
C882        C  0.03697856  0.83189603  0.34073301    -0.19900
C883        C  0.01007161  0.81485716  0.33950149     0.20700
C884        C  0.48357965  0.82427358  0.34680457    -0.02800
C885        C  0.48447342  0.85029697  0.35552001    -0.05900
C886        C  0.01201422  0.86678149  0.35701481     0.21000
C887        C  0.45812972  0.85939929  0.36297561     0.19200
C888        C  0.43115083  0.84255474  0.36160559    -0.17400
C889        C  0.43034659  0.81661137  0.35308890    -0.19600
C890        C  0.45643991  0.80720582  0.34572045     0.20700
C891        C  0.45591592  0.78090702  0.33737496    -0.32600
C892        C  0.98205668  0.77153200  0.33008624     0.01400
C893        C  0.00896016  0.78874220  0.33098700    -0.23900
C894        C  0.01299319  0.89203798  0.36606049    -0.28500
C895        C  0.98696145  0.90095558  0.37372292     0.07000
C896        C  0.45935996  0.88477747  0.37190525    -0.27200
H897        H  0.05910726  0.87016351  0.35033538     0.11800
H898        H  0.05733665  0.82521293  0.33503903     0.12900
H899        H  0.41074081  0.84924330  0.36725763     0.12000
H900        H  0.40932811  0.80380256  0.35231701     0.11200
H901        H  0.43521555  0.76755951  0.33658241     0.16600
H902        H  0.02901016  0.78153473  0.32517974     0.12500
H903        H  0.03413861  0.90450007  0.36727437     0.15400
H904        H  0.43921925  0.89137504  0.37778804     0.15100
C905        C  0.42837632  0.61975876  0.35449115    -0.17700
C906        C  0.42969959  0.59498544  0.36370880    -0.19900
C907        C  0.45623905  0.57687713  0.36468219     0.20700
C908        C  0.98130127  0.58326373  0.35592304    -0.02800
C909        C  0.97975819  0.60799348  0.34645997    -0.05900
C910        C  0.45348698  0.62672487  0.34601149     0.21000
C911        C  0.00513816  0.61481400  0.33796009     0.19200
C912        C  0.03164487  0.59668058  0.33889270    -0.17400
C913        C  0.03327841  0.57238782  0.34836872    -0.19600
C914        C  0.00834358  0.56563648  0.35700557     0.20700
C915        C  0.01011754  0.54183599  0.36681727    -0.32600
C916        C  0.98506544  0.53511190  0.37545502     0.01400
C917        C  0.45810196  0.55259917  0.37423443    -0.23900
C918        C  0.45281360  0.65224704  0.33715296    -0.28500
C919        C  0.97779276  0.65904583  0.32861772     0.07000
C920        C  0.00387199  0.64015358  0.32898849    -0.27200
H921        H  0.40779135  0.63365023  0.35408715     0.11800
H922        H  0.41008019  0.59022767  0.37021451     0.12900
H923        H  0.05131288  0.60158457  0.33244123     0.12000
H924        H  0.05416828  0.55901531  0.34902083     0.11200
H925        H  0.03103240  0.52855449  0.36773680     0.16600
H926        H  0.43873788  0.54774947  0.38089375     0.12500
H927        H  0.43279314  0.66699315  0.33687078     0.15400
H928        H  0.02353028  0.64591506  0.32266919     0.15100
C929        C  0.44598597  0.83281656  0.46533644    -0.17700
C930        C  0.44521906  0.85746101  0.45604443    -0.19900
C931        C  0.47168471  0.86618981  0.44886523     0.20700
C932        C  0.49930472  0.85014561  0.45118685    -0.02800
C933        C  0.50001906  0.82504865  0.46047620    -0.05900
C934        C  0.47318090  0.81632675  0.46754546     0.21000
C935        C  0.02752129  0.80813734  0.46220854     0.19200
C936        C  0.05410595  0.81719383  0.45520288    -0.17400
C937        C  0.05348966  0.84225984  0.44611186    -0.19600
C938        C  0.02622979  0.85862021  0.44378337     0.20700
C939        C  0.02518096  0.88325378  0.43435775    -0.32600
C940        C  0.99757542  0.89903443  0.43180047     0.01400
C941        C  0.47088005  0.89042720  0.43928333    -0.23900
C942        C  0.47384969  0.79089882  0.47646585    -0.28500
C943        C  0.50080781  0.77368889  0.47819591     0.07000
C944        C  0.02766730  0.78244739  0.47102221    -0.27200
H945        H  0.42519121  0.82641668  0.47067362     0.11800
H946        H  0.42384109  0.86958887  0.45440450     0.12900
H947        H  0.07535930  0.80475216  0.45668238     0.12000
H948        H  0.07429195  0.84864597  0.44077855     0.11200
H949        H  0.04571100  0.88975649  0.42882748     0.16600
H950        H  0.44950404  0.90243903  0.43743616     0.12500
H951        H  0.45318689  0.78385124  0.48175600     0.15400
H952        H  0.04845788  0.76916729  0.47242416     0.15100
C953        C  0.45113604  0.59675437  0.47012564    -0.17700
C954        C  0.45013024  0.57175892  0.46105568    -0.19900
C955        C  0.47512375  0.56483780  0.45243302     0.20700
C956        C  0.50174368  0.58276532  0.45321323    -0.02800
C957        C  0.50272045  0.60808141  0.46233484    -0.05900
C958        C  0.47712065  0.61525345  0.47068949     0.21000
C959        C  0.02918490  0.62685759  0.46280803     0.19200
C960        C  0.05438624  0.61953052  0.45436873    -0.17400
C961        C  0.05341966  0.59434068  0.44535801    -0.19600
C962        C  0.02718736  0.57613779  0.44459552     0.20700
C963        C  0.02545833  0.55167017  0.43513915    -0.32600
C964        C  0.99861039  0.53432693  0.43404040     0.01400
C965        C  0.47366521  0.54072019  0.44283166    -0.23900
C966        C  0.47755032  0.64133245  0.47913890    -0.28500
C967        C  0.50320804  0.66034427  0.47940530     0.07000
C968        C  0.02930122  0.65292458  0.47136938    -0.27200
H969        H  0.43137894  0.60192662  0.47653477     0.11800
H970        H  0.42961074  0.55809861  0.46063510     0.12900
H971        H  0.07469305  0.63352643  0.45459680     0.12000
H972        H  0.07302227  0.58938109  0.43882038     0.11200
H973        H  0.04466531  0.54670572  0.42835206     0.16600
H974        H  0.45300529  0.52730491  0.44209745     0.12500
H975        H  0.45742704  0.64756941  0.48510477     0.15400
H976        H  0.04901356  0.66777754  0.47151702     0.15100
C977        C  0.04669661  0.83390250  0.52100860    -0.17700
C978        C  0.04759305  0.85850059  0.53030975    -0.19900
C979        C  0.02130097  0.86738142  0.53767423     0.20700
C980        C  0.49420189  0.85130496  0.53572399    -0.02800
C981        C  0.49336437  0.82619136  0.52648983    -0.05900
C982        C  0.01955839  0.81765125  0.51900722     0.21000
C983        C  0.46603077  0.80966896  0.52471891     0.19200
C984        C  0.43962231  0.81892142  0.53191047    -0.17400
C985        C  0.44036517  0.84406795  0.54093858    -0.19600
C986        C  0.46758455  0.86022723  0.54300045     0.20700
C987        C  0.46877513  0.88485064  0.55236233    -0.32600
C988        C  0.49634204  0.90038750  0.55471445     0.01400
C989        C  0.02225562  0.89155549  0.54726604    -0.23900
C990        C  0.01888894  0.79214335  0.51019484    -0.28500
C991        C  0.49250925  0.77469105  0.50900319     0.07000
C992        C  0.46585093  0.78379901  0.51604712    -0.27200
H993        H  0.06735923  0.82730573  0.51552579     0.11800
H994        H  0.06892666  0.87045614  0.53181740     0.12900
H995        H  0.41845045  0.80655607  0.53064028     0.12000
H996        H  0.41972731  0.85065165  0.54644366     0.11200
H997        H  0.44836311  0.89149702  0.55803628     0.16600
H998        H  0.04356411  0.90343714  0.54900533     0.12500
H999        H  0.03950534  0.78479057  0.50484978     0.15400
H1000       H  0.44522661  0.77045536  0.51491022     0.15100
C1001       C  0.44065357  0.60780531  0.52684121    -0.17700
C1002       C  0.44122715  0.58190624  0.53543128    -0.19900
C1003       C  0.46911518  0.56956992  0.54012266     0.20700
C1004       C  0.49672903  0.58305354  0.53582016    -0.02800
C1005       C  0.49616783  0.60902708  0.52704210    -0.05900
C1006       C  0.46796307  0.62173265  0.52270229     0.21000
C1007       C  0.02384287  0.62239495  0.52259824     0.19200
C1008       C  0.05171898  0.60933306  0.52682703    -0.17400
C1009       C  0.05223473  0.58378292  0.53560402    -0.19600
C1010       C  0.02487879  0.57071742  0.54024772     0.20700
C1011       C  0.02525113  0.54564744  0.54940011    -0.32600
C1012       C  0.49785801  0.53268645  0.55426972     0.01400
C1013       C  0.46985700  0.54441300  0.54925651    -0.23900
C1014       C  0.46762471  0.64829925  0.51444858    -0.28500
C1015       C  0.49513411  0.66172002  0.51019315     0.07000
C1016       C  0.02315790  0.64849208  0.51408976    -0.27200
H1017       H  0.41881374  0.61709311  0.52352379     0.11800
H1018       H  0.41980500  0.57177427  0.53857134     0.12900
H1019       H  0.07315870  0.61908564  0.52346353     0.12000
H1020       H  0.07407310  0.57436767  0.53884861     0.11200
H1021       H  0.04697310  0.53639965  0.55291272     0.16600
H1022       H  0.44858801  0.53439776  0.55269475     0.12500
H1023       H  0.44607562  0.65850936  0.51126969     0.15400
H1024       H  0.04433322  0.65866499  0.51060960     0.15100
C1025       C  0.05948399  0.84221439  0.62642129    -0.17700
C1026       C  0.06011942  0.81662997  0.63519502    -0.19900
C1027       C  0.03341076  0.80681942  0.64187090     0.20700
C1028       C  0.50589004  0.82314698  0.63971149    -0.02800
C1029       C  0.00510231  0.84870914  0.63076309    -0.05900
C1030       C  0.03209240  0.85835941  0.62410205     0.21000
C1031       C  0.47754912  0.86487940  0.62853067     0.19200
C1032       C  0.45092506  0.85533081  0.63535527    -0.17400
C1033       C  0.45163676  0.83006495  0.64429947    -0.19600
C1034       C  0.47894715  0.81378295  0.64652503     0.20700
C1035       C  0.47971863  0.78810628  0.65530281    -0.32600
C1036       C  0.50694381  0.77147522  0.65718412     0.01400
C1037       C  0.03371971  0.78094348  0.65055080    -0.23900
C1038       C  0.03113937  0.88372804  0.61511515    -0.28500
C1039       C  0.50356539  0.89947810  0.61252265     0.07000
C1040       C  0.47688891  0.88998671  0.61940737    -0.27200
H1041       H  0.08040968  0.84926273  0.62137298     0.11800
H1042       H  0.08151226  0.80446654  0.63673552     0.12900
H1043       H  0.42949252  0.86737939  0.63374896     0.12000
H1044       H  0.43075014  0.82313573  0.64941508     0.11200
H1045       H  0.45908234  0.78065043  0.66049246     0.16600
H1046       H  0.05472905  0.76809953  0.65211130     0.12500
H1047       H  0.05185829  0.89088489  0.60991230     0.15400
H1048       H  0.45551286  0.90202292  0.61759849     0.15100
C1049       C  0.05205766  0.56965965  0.63783596    -0.17700
C1050       C  0.05236869  0.59459038  0.64700740    -0.19900
C1051       C  0.02625610  0.61301416  0.64873186     0.20700
C1052       C  0.49924947  0.60577014  0.64132869    -0.02800
C1053       C  0.49881892  0.58029415  0.63221530    -0.05900
C1054       C  0.02553748  0.56248903  0.63031164     0.21000
C1055       C  0.47194783  0.57313587  0.62480008     0.19200
C1056       C  0.44560943  0.59120087  0.62674431    -0.17400
C1057       C  0.44615625  0.61668424  0.63561553    -0.19600
C1058       C  0.47297377  0.62442415  0.64280406     0.20700
C1059       C  0.47426749  0.65084101  0.65116289    -0.32600
C1060       C  0.50126611  0.65839354  0.65830337     0.01400
C1061       C  0.02695367  0.63908860  0.65730677    -0.23900
C1062       C  0.02549116  0.53829133  0.62063660    -0.28500
C1063       C  0.49895017  0.53122497  0.61298849     0.07000
C1064       C  0.47210117  0.54849459  0.61535141    -0.27200
H1065       H  0.07271829  0.55617657  0.63650461     0.11800
H1066       H  0.07325844  0.59982094  0.65255485     0.12900
H1067       H  0.42472039  0.58596126  0.62119495     0.12000
H1068       H  0.42569486  0.63057640  0.63671344     0.11200
H1069       H  0.45443124  0.66571354  0.65205791     0.16600
H1070       H  0.04777267  0.64506757  0.66276473     0.12500
H1071       H  0.04621970  0.52508781  0.61894765     0.15400
H1072       H  0.45152825  0.54333514  0.60953427     0.15100
C1073       C  0.45584506  0.83915797  0.72224910    -0.17700
C1074       C  0.45667286  0.81251535  0.71418390    -0.19900
C1075       C  0.48136218  0.80655207  0.70525746     0.20700
C1076       C  0.50537317  0.82780224  0.70432856    -0.02800
C1077       C  0.50458716  0.85471758  0.71255401    -0.05900
C1078       C  0.47978995  0.86029183  0.72157878     0.21000
C1079       C  0.02902090  0.87575251  0.71195570     0.19200
C1080       C  0.05378099  0.86964271  0.70302424    -0.17400
C1081       C  0.05454313  0.84296942  0.69486610    -0.19600
C1082       C  0.03054872  0.82185587  0.69546683     0.20700
C1083       C  0.03119223  0.79474663  0.68747429    -0.32600
C1084       C  0.50713493  0.77352617  0.68835293     0.01400
C1085       C  0.48248903  0.77960745  0.69732671    -0.23900
C1086       C  0.47917576  0.88679071  0.72986302    -0.28500
C1087       C  0.50331266  0.90809974  0.72948478     0.07000
C1088       C  0.02814378  0.90230252  0.72031188    -0.27200
H1089       H  0.43655325  0.84311552  0.72909204     0.11800
H1090       H  0.43800243  0.79648593  0.71497876     0.12900
H1091       H  0.07265498  0.88545389  0.70238415     0.12000
H1092       H  0.07397851  0.83880493  0.68811833     0.11200
H1093       H  0.05052536  0.78981180  0.68076287     0.16600
H1094       H  0.46411107  0.76321241  0.69810559     0.12500
H1095       H  0.45946133  0.89037714  0.73632907     0.15400
H1096       H  0.04681673  0.91838739  0.71976351     0.15100
C1097       C  0.45513056  0.59050498  0.69380096    -0.17700
C1098       C  0.45444934  0.56347497  0.70159992    -0.19900
C1099       C  0.47712463  0.55728096  0.71159219     0.20700
C1100       C  0.00075811  0.57860011  0.71383648    -0.02800
C1101       C  0.00161873  0.60576529  0.70585512    -0.05900
C1102       C  0.47864214  0.61171343  0.69576733     0.21000
C1103       C  0.02555917  0.62677930  0.70780639     0.19200
C1104       C  0.04828103  0.62053254  0.71777393    -0.17400
C1105       C  0.04732547  0.59371935  0.72573897    -0.19600
C1106       C  0.02368982  0.57259043  0.72385096     0.20700
C1107       C  0.02280666  0.54538904  0.73164971    -0.32600
C1108       C  0.49951067  0.52393194  0.72937906     0.01400
C1109       C  0.47684376  0.53001237  0.71932034    -0.23900
C1110       C  0.47965876  0.63870816  0.68786767    -0.28500
C1111       C  0.50365717  0.65958278  0.68960181     0.07000
C1112       C  0.02642167  0.65355106  0.69971333    -0.27200
H1113       H  0.43736612  0.59471977  0.68614739     0.11800
H1114       H  0.43618401  0.54736915  0.69979668     0.12900
H1115       H  0.06683813  0.63639068  0.71940542     0.12000
H1116       H  0.06517557  0.58943775  0.73334306     0.11200
H1117       H  0.04074513  0.54046160  0.73907144     0.16600
H1118       H  0.45900902  0.51340512  0.71751054     0.12500
H1119       H  0.46167680  0.64358479  0.68040455     0.15400
H1120       H  0.04495507  0.66957611  0.70109097     0.15100
C1121       C  0.40996454  0.93201417  0.79437360    -0.17700
C1122       C  0.38193496  0.93437268  0.80132357    -0.19900
C1123       C  0.36257320  0.95961391  0.79905336     0.20700
C1124       C  0.37188366  0.98310524  0.78994634    -0.02800
C1125       C  0.40040115  0.98087913  0.78302957    -0.05900
C1126       C  0.41925450  0.95495935  0.78509771     0.21000
C1127       C  0.40774899  0.51333263  0.77397966     0.19200
C1128       C  0.39160915  0.54116211  0.77295844    -0.17400
C1129       C  0.36344485  0.54522017  0.77976751    -0.19600
C1130       C  0.35072827  0.52150939  0.78771677     0.20700
C1131       C  0.32193472  0.52490311  0.79422393    -0.32600
C1132       C  0.30951572  0.50084819  0.80211066     0.01400
C1133       C  0.33398923  0.96163073  0.80564001    -0.23900
C1134       C  0.44642503  0.95181227  0.77742539    -0.28500
C1135       C  0.45515983  0.97418985  0.76768568     0.07000
C1136       C  0.43714835  0.00077273  0.76622722    -0.27200
H1137       H  0.42420132  0.91199461  0.79610623     0.11800
H1138       H  0.37520045  0.91621352  0.80833292     0.12900
H1139       H  0.40052244  0.55965721  0.76669242     0.12000
H1140       H  0.35138596  0.56680581  0.77864692     0.11200
H1141       H  0.30931272  0.54622048  0.79327775     0.16600
H1142       H  0.32682601  0.94360044  0.81264143     0.12500
H1143       H  0.46019587  0.93123582  0.77854936     0.15400
H1144       H  0.44356399  0.52564938  0.75943777     0.15100
C1145       C  0.10189284  0.93598509  0.79366296    -0.17700
C1146       C  0.12920508  0.93830149  0.80118329    -0.19900
C1147       C  0.15059445  0.96089866  0.79786858     0.20700
C1148       C  0.14426276  0.98155979  0.78692089    -0.02800
C1149       C  0.11653134  0.97931817  0.77934857    -0.05900
C1150       C  0.09537877  0.95627276  0.78270062     0.21000
C1151       C  0.09738512  0.50945235  0.77255055     0.19200
C1152       C  0.11123089  0.53833324  0.77270323    -0.17400
C1153       C  0.13886640  0.54287104  0.77980615    -0.19600
C1154       C  0.15313246  0.51868384  0.78699028     0.20700
C1155       C  0.18104792  0.52291251  0.79404956    -0.32600
C1156       C  0.19482575  0.49861798  0.80138506     0.01400
C1157       C  0.17818999  0.96309317  0.80529828    -0.23900
C1158       C  0.06839429  0.95348212  0.77486091    -0.28500
C1159       C  0.06199160  0.97354513  0.76376865     0.07000
C1160       C  0.07009781  0.50441045  0.76508050    -0.27200
H1161       H  0.08590533  0.91817379  0.79638017     0.11800
H1162       H  0.13366106  0.92229249  0.80957434     0.12900
H1163       H  0.10083975  0.55737908  0.76719597     0.12000
H1164       H  0.14913413  0.56532629  0.77964715     0.11200
H1165       H  0.19187691  0.54511615  0.79402337     0.16600
H1166       H  0.18309489  0.94693801  0.81358628     0.12500
H1167       H  0.05252233  0.93527562  0.77719124     0.15400
H1168       H  0.05954610  0.52313085  0.75948845     0.15100
C1169       C  0.38300728  0.45697247  0.86241767    -0.17700
C1170       C  0.35775843  0.45526048  0.85348769    -0.19900
C1171       C  0.34545969  0.48182155  0.84741206     0.20700
C1172       C  0.35896974  0.51038515  0.85022295    -0.02800
C1173       C  0.38434814  0.51212266  0.85930297    -0.05900
C1174       C  0.39635700  0.48529072  0.86546676     0.21000
C1175       C  0.39743607  0.54074048  0.86234061     0.19200
C1176       C  0.38529183  0.56729103  0.85617436    -0.17400
C1177       C  0.36026066  0.56556342  0.84712696    -0.19600
C1178       C  0.34685177  0.53727015  0.84412901     0.20700
C1179       C  0.32125962  0.53541281  0.83533773    -0.32600
C1180       C  0.30745937  0.50712043  0.83275089     0.01400
C1181       C  0.31961729  0.48041913  0.83876314    -0.23900
C1182       C  0.42124093  0.48728384  0.87469166    -0.28500
C1183       C  0.43420782  0.51579327  0.87791064     0.07000
C1184       C  0.42221395  0.54237890  0.87160286    -0.27200
H1185       H  0.39194182  0.43614316  0.86703814     0.11800
H1186       H  0.34452193  0.92517770  0.86035706     0.12900
H1187       H  0.39507681  0.58944719  0.85840233     0.12000
H1188       H  0.35122687  0.58640978  0.84256056     0.11200
H1189       H  0.31161900  0.55596831  0.83073019     0.16600
H1190       H  0.30873220  0.45866056  0.83677509     0.12500
H1191       H  0.43021718  0.46667931  0.87951265     0.15400
H1192       H  0.43196488  0.56447611  0.87400460     0.15100
C1193       C  0.13115109  0.45996469  0.86869826    -0.17700
C1194       C  0.15644255  0.45820298  0.85978770    -0.19900
C1195       C  0.16251931  0.48188566  0.85033717     0.20700
C1196       C  0.14268913  0.50746912  0.84975591    -0.02800
C1197       C  0.11735663  0.50942878  0.85888942    -0.05900
C1198       C  0.11159344  0.48556365  0.86841153     0.21000
C1199       C  0.09811513  0.53547277  0.85863930     0.19200
C1200       C  0.10395319  0.55895585  0.84904639    -0.17400
C1201       C  0.12882429  0.55686656  0.83989962    -0.19600
C1202       C  0.14848176  0.53136069  0.84023785     0.20700
C1203       C  0.17418435  0.52963432  0.83146595    -0.32600
C1204       C  0.19443792  0.50459270  0.83226619     0.01400
C1205       C  0.18836831  0.48072925  0.84165835    -0.23900
C1206       C  0.08670143  0.48792817  0.87762688    -0.28500
C1207       C  0.06781280  0.51415380  0.87768813     0.07000
C1208       C  0.07364835  0.53776762  0.86809750    -0.27200
H1209       H  0.12709472  0.44143526  0.87594122     0.11800
H1210       H  0.17138279  0.43837177  0.86035380     0.12900
H1211       H  0.08936979  0.57907052  0.84867328     0.12000
H1212       H  0.13290792  0.57541272  0.83266941     0.11200
H1213       H  0.17905657  0.54819981  0.82434110     0.16600
H1214       H  0.20404604  0.46146109  0.84229408     0.12500
H1215       H  0.08253168  0.46968884  0.88501766     0.15400
H1216       H  0.05916667  0.55798807  0.86801276     0.15100
C1217       C  0.40329988  0.55095385  0.21256686    -0.17700
C1218       C  0.37588846  0.55944696  0.20596826    -0.19900
C1219       C  0.35567565  0.53711215  0.20101758     0.20700
C1220       C  0.36903839  0.99880237  0.20321087    -0.02800
C1221       C  0.39709961  0.99211732  0.20993448    -0.05900
C1222       C  0.41130555  0.51995613  0.21414337     0.21000
C1223       C  0.41145162  0.96345085  0.20789354     0.19200
C1224       C  0.39787337  0.94191491  0.19900537    -0.17400
C1225       C  0.37031221  0.94868223  0.19220356    -0.19600
C1226       C  0.35567427  0.97700804  0.19425645     0.20700
C1227       C  0.32795073  0.98394783  0.18752175    -0.32600
C1228       C  0.31324902  0.01222987  0.18974133     0.01400
C1229       C  0.32787338  0.54529076  0.19453614    -0.23900
C1230       C  0.43834265  0.51110448  0.22113652    -0.28500
C1231       C  0.45218919  0.97816773  0.22399882     0.07000
C1232       C  0.43878236  0.95662036  0.21498587    -0.27200
H1233       H  0.41823102  0.56866561  0.21646327     0.11800
H1234       H  0.37034981  0.58351319  0.20486912     0.12900
H1235       H  0.40855285  0.91978080  0.19732997     0.12000
H1236       H  0.36035766  0.93167819  0.18538252     0.11200
H1237       H  0.31771056  0.96740616  0.18053981     0.16600
H1238       H  0.32193254  0.56917877  0.19305764     0.12500
H1239       H  0.45253030  0.52856258  0.22574956     0.15400
H1240       H  0.44941859  0.93432658  0.21368719     0.15100
C1241       C  0.17050887  0.95959592  0.21624173    -0.17700
C1242       C  0.14420851  0.95345606  0.22391107    -0.19900
C1243       C  0.11772157  0.97132880  0.22211911     0.20700
C1244       C  0.11763871  0.99563971  0.21255040    -0.02800
C1245       C  0.14463074  0.00246316  0.20506721    -0.05900
C1246       C  0.17104139  0.98416929  0.20688927     0.21000
C1247       C  0.13941227  0.53202889  0.19577895     0.19200
C1248       C  0.11225338  0.54891165  0.19392358    -0.17400
C1249       C  0.08520859  0.54016240  0.20064924    -0.19600
C1250       C  0.09078917  0.01321660  0.21058624     0.20700
C1251       C  0.06381704  0.00561093  0.21796305    -0.32600
C1252       C  0.06365291  0.98115518  0.22763708     0.01400
C1253       C  0.09145959  0.96508607  0.22983647    -0.23900
C1254       C  0.19763788  0.99065457  0.19938934    -0.28500
C1255       C  0.19896714  0.01582821  0.19031177     0.07000
C1256       C  0.16668592  0.54042368  0.18903432    -0.27200
H1257       H  0.19057479  0.94531066  0.21775139     0.11800
H1258       H  0.14452068  0.93451077  0.23118799     0.12900
H1259       H  0.11185707  0.56876261  0.18717127     0.12000
H1260       H  0.06457355  0.55347219  0.19893212     0.11200
H1261       H  0.03689573  0.51812284  0.21441193     0.16600
H1262       H  0.09353733  0.94760127  0.23769918     0.12500
H1263       H  0.21742853  0.97582451  0.20057191     0.15400
H1264       H  0.16698389  0.56091242  0.18270633     0.15100
C1265       C  0.36786854  0.48300676  0.96978945    -0.17700
C1266       C  0.39307020  0.48146899  0.96083953    -0.19900
C1267       C  0.40174548  0.50710237  0.95302476     0.20700
C1268       C  0.38508248  0.53469708  0.95437474    -0.02800
C1269       C  0.35941466  0.53616362  0.96330442    -0.05900
C1270       C  0.35075735  0.51013984  0.97101198     0.21000
C1271       C  0.34212651  0.56347586  0.96432662     0.19200
C1272       C  0.35114786  0.58925775  0.95670365    -0.17400
C1273       C  0.37677192  0.58789491  0.94797579    -0.19600
C1274       C  0.39372778  0.56065751  0.94662704     0.20700
C1275       C  0.41877267  0.55874842  0.93747224    -0.32600
C1276       C  0.43499454  0.53105350  0.93577013     0.01400
C1277       C  0.42645588  0.50543992  0.94371603    -0.23900
C1278       C  0.32484799  0.51154512  0.97960721    -0.28500
C1279       C  0.30716095  0.53842633  0.98040457     0.07000
C1280       C  0.31591133  0.56434058  0.97278348    -0.27200
H1281       H  0.36153432  0.46283659  0.97563370     0.11800
H1282       H  0.40566073  0.46012673  0.95995332     0.12900
H1283       H  0.33824047  0.61044262  0.95741086     0.12000
H1284       H  0.38309340  0.60806504  0.94213050     0.11200
H1285       H  0.42509250  0.57859201  0.93138843     0.16600
H1286       H  0.43886618  0.48404143  0.94255418     0.12500
H1287       H  0.31791649  0.49152448  0.98543242     0.15400
H1288       H  0.30223005  0.58506472  0.97344187     0.15100
C1289       C  0.13160249  0.58352387  0.94391405    -0.17700
C1290       C  0.15676130  0.58511892  0.95288598    -0.19900
C1291       C  0.16210056  0.56209703  0.96279718     0.20700
C1292       C  0.14161997  0.53742991  0.96382358    -0.02800
C1293       C  0.11634579  0.53568693  0.95468335    -0.05900
C1294       C  0.11142112  0.55880163  0.94465018     0.21000
C1295       C  0.09640807  0.51051920  0.95539302     0.19200
C1296       C  0.10142698  0.48780415  0.96549659    -0.17400
C1297       C  0.12637163  0.48961763  0.97460414    -0.19600
C1298       C  0.14680419  0.51412085  0.97373780     0.20700
C1299       C  0.17277204  0.51528545  0.98232611    -0.32600
C1300       C  0.19363496  0.53946578  0.98114991     0.01400
C1301       C  0.18792945  0.56294769  0.97146582    -0.23900
C1302       C  0.08676618  0.55651558  0.93535260    -0.28500
C1303       C  0.06730683  0.53108477  0.93571760     0.07000
C1304       C  0.07215520  0.50826363  0.94583829    -0.27200
H1305       H  0.12815207  0.60145124  0.93626718     0.11800
H1306       H  0.17223791  0.60422253  0.95197251     0.12900
H1307       H  0.09553741  0.97112932  0.96567031     0.12000
H1308       H  0.13943329  0.97569287  0.98141058     0.11200
H1309       H  0.17738020  0.49678466  0.98955731     0.16600
H1310       H  0.20396104  0.58160594  0.97053422     0.12500
H1311       H  0.08325709  0.57412438  0.92754815     0.15400
H1312       H  0.05711027  0.48871402  0.94624445     0.15100
C1313       C  0.37621050  0.07788966  0.15017131    -0.17700
C1314       C  0.40102131  0.07903177  0.14096519    -0.19900
C1315       C  0.40765999  0.05424510  0.13211485     0.20700
C1316       C  0.38917366  0.02796020  0.13262420    -0.02800
C1317       C  0.35744212  0.54068096  0.14213632    -0.05900
C1318       C  0.35742190  0.05204156  0.15062062     0.21000
C1319       C  0.34822598  0.51318021  0.14851186     0.19200
C1320       C  0.36414227  0.48593709  0.14562407    -0.17400
C1321       C  0.38896612  0.48586887  0.13645079    -0.19600
C1322       C  0.39833834  0.51305769  0.13003534     0.20700
C1323       C  0.42307972  0.51309811  0.12074571    -0.32600
C1324       C  0.43899557  0.03020747  0.11400127     0.01400
C1325       C  0.43229096  0.05532045  0.12270906    -0.23900
C1326       C  0.33192513  0.05102550  0.15952032    -0.28500
C1327       C  0.31269847  0.02547245  0.15947504     0.07000
C1328       C  0.32293812  0.51330092  0.15746720    -0.27200
H1329       H  0.37153728  0.09737131  0.15684949     0.11800
H1330       H  0.41498926  0.09936527  0.14074447     0.12900
H1331       H  0.35729894  0.46463556  0.15041650     0.12000
H1332       H  0.40080749  0.46450989  0.13434849     0.11200
H1333       H  0.43500130  0.49183093  0.11851662     0.16600
H1334       H  0.44633327  0.07559500  0.12221823     0.12500
H1335       H  0.32650944  0.07033277  0.16620279     0.15400
H1336       H  0.31525400  0.49205996  0.16204367     0.15100
C1337       C  0.13898915  0.97761060  0.14680490    -0.17700
C1338       C  0.11373150  0.97843521  0.13786965    -0.19900
C1339       C  0.10566482  0.00553093  0.13090234     0.20700
C1340       C  0.12310393  0.03213944  0.13300837    -0.02800
C1341       C  0.14285703  0.53994796  0.14236613    -0.05900
C1342       C  0.15669030  0.00382396  0.14886648     0.19200
C1343       C  0.15968697  0.56699697  0.14440459     0.19200
C1344       C  0.15041798  0.59403312  0.13770481    -0.17400
C1345       C  0.12474287  0.59429863  0.12900716    -0.19600
C1346       C  0.10798251  0.56749689  0.12680553     0.20700
C1347       C  0.08262092  0.56744537  0.11784215    -0.32600
C1348       C  0.07276291  0.03347177  0.11468765     0.01400
C1349       C  0.08071791  0.00634794  0.12172592    -0.23900
C1350       C  0.18239931  0.00300813  0.15759105    -0.28500
C1351       C  0.20032967  0.02917747  0.15938405     0.07000
C1352       C  0.18558157  0.56647247  0.15303048    -0.27200
H1353       H  0.14481187  0.95639205  0.15203030     0.11800
H1354       H  0.10056244  0.95781950  0.13636311     0.12900
H1355       H  0.16308103  0.61498174  0.13916561     0.12000
H1356       H  0.11811742  0.61544548  0.12391687     0.11200
H1357       H  0.07596977  0.58836535  0.11255539     0.16600
H1358       H  0.06761581  0.98576098  0.11998077     0.12500
H1359       H  0.18882992  0.98195455  0.16283070     0.15400
H1360       H  0.19873556  0.58711106  0.15456580     0.15100
C1361       C  0.37187953  0.58553642  0.02100259    -0.17700
C1362       C  0.39689759  0.58623327  0.03010963    -0.19900
C1363       C  0.40391277  0.56088255  0.03853588     0.20700
C1364       C  0.38578731  0.53439118  0.03760301    -0.02800
C1365       C  0.36034743  0.53381432  0.02854233    -0.05900
C1366       C  0.35329216  0.55957452  0.02024668     0.21000
C1367       C  0.34161556  0.50769159  0.02801424     0.19200
C1368       C  0.34973409  0.98607636  0.03683027    -0.17400
C1369       C  0.37540909  0.98434575  0.04549229    -0.19600
C1370       C  0.39271384  0.50864906  0.04591533     0.20700
C1371       C  0.42148470  0.00745359  0.05501227    -0.32600
C1372       C  0.43525252  0.53611828  0.05641111     0.01400
C1373       C  0.42840053  0.56167484  0.04802518    -0.23900
C1374       C  0.32736631  0.55915032  0.01161806    -0.28500
C1375       C  0.30820170  0.53351961  0.01138736     0.07000
C1376       C  0.31555920  0.50780957  0.01950442    -0.27200
H1377       H  0.36680356  0.60548587  0.01469447     0.11800
H1378       H  0.41062724  0.60670665  0.03064036     0.12900
H1379       H  0.33354304  0.96746596  0.03689105     0.12000
H1380       H  0.37852819  0.96443715  0.05207539     0.11200
H1381       H  0.42463721  0.98795296  0.06185584     0.16600
H1382       H  0.44203415  0.58217016  0.04892225     0.12500
H1383       H  0.32145716  0.57908345  0.00543262     0.15400
H1384       H  0.30072364  0.48807505  0.01928593     0.15100
C1385       C  0.13441011  0.98372467  0.04259441    -0.17700
C1386       C  0.15983021  0.98502595  0.03379396    -0.19900
C1387       C  0.16741084  0.01239979  0.02706346     0.20700
C1388       C  0.14387197  0.53484705  0.02999217    -0.02800
C1389       C  0.11844543  0.53530746  0.03905787    -0.05900
C1390       C  0.11628033  0.00984658  0.04491004     0.21000
C1391       C  0.10199893  0.56278396  0.04124531     0.19200
C1392       C  0.11083989  0.58941080  0.03420341    -0.17400
C1393       C  0.13580214  0.58887592  0.02509222    -0.19600
C1394       C  0.15251792  0.56176704  0.02294894     0.20700
C1395       C  0.17797063  0.56118640  0.01405316    -0.32600
C1396       C  0.19522554  0.53424272  0.01236906     0.01400
C1397       C  0.19329789  0.01405623  0.01850869    -0.23900
C1398       C  0.09129294  0.00891444  0.05405829    -0.28500
C1399       C  0.06835247  0.53645628  0.05753853     0.07000
C1400       C  0.07718790  0.56321754  0.05052013    -0.27200
H1401       H  0.12912549  0.96234102  0.04771849     0.11800
H1402       H  0.17366690  0.96463317  0.03230507     0.12900
H1403       H  0.09846529  0.61069410  0.03576063     0.12000
H1404       H  0.14218996  0.60974946  0.01980259     0.11200
H1405       H  0.18489092  0.58182109  0.00869262     0.16600
H1406       H  0.20785414  0.99410619  0.01712479     0.12500
H1407       H  0.08596536  0.98772791  0.05935415     0.15400
H1408       H  0.06479441  0.58442370  0.05229353     0.15100
O1409       O  0.53085898  0.51464181  0.10062384    -0.71700
O1410       O  0.97048383  0.51282734  0.07217891    -0.71900
O1411       O  0.53221973  0.51271490  0.07271610    -0.71800
O1412       O  0.96946114  0.51486804  0.10006287    -0.71800
O1413       O  0.97505402  0.05700588  0.09968484    -0.71700
O1414       O  0.53669357  0.05856575  0.07162871    -0.71800
O1415       O  0.97531123  0.05770124  0.07157076    -0.71700
O1416       O  0.53695060  0.05774205  0.09958594    -0.71900
V1417       V  0.50076325  0.51471399  0.08635511     1.35200
V1418       V  0.00591336  0.05704096  0.08563867     1.35200
C1419       C  0.54145783  0.53972240  0.10496343     0.77500
C1420       C  0.96580921  0.03277313  0.06653954     0.77600
C1421       C  0.54871423  0.03412571  0.06707444     0.77500
C1422       C  0.95811177  0.53995932  0.10420958     0.77400
C1423       C  0.72909410  0.04305052  0.00336733     0.02400
C1424       C  0.72887521  0.04704813  0.98873552     0.02300
C1425       C  0.75686534  0.04942616  0.98161831    -0.18200
C1426       C  0.78497182  0.04687706  0.98867747     0.02400
C1427       C  0.78497035  0.04254755  0.00331510     0.02300
C1428       C  0.75705064  0.04083334  0.01043794    -0.18200
H1429       H  0.75706010  0.03794124  0.02167583     0.04400
H1430       H  0.75678056  0.05168023  0.97035556     0.04400
C1431       C  0.72247003  0.52982506  0.18282187     0.02400
C1432       C  0.72271693  0.53864031  0.16856504     0.02300
C1433       C  0.75657656  0.03017713  0.16103325    -0.18200
C1434       C  0.77862498  0.53903126  0.16871495     0.02400
C1435       C  0.77867956  0.53006679  0.18285854     0.02300
C1436       C  0.75071965  0.52626964  0.18981053    -0.18200
H1437       H  0.75108879  0.51953512  0.20068650     0.04400
H1438       H  0.75677548  0.03442409  0.14988523     0.04400
O1439       O  0.53164413  0.50222082  0.92222825    -0.71700
O1440       O  0.97073383  0.49462809  0.89400495    -0.71900
O1441       O  0.53269061  0.49432645  0.89439508    -0.71800
O1442       O  0.97009450  0.50250057  0.92181129    -0.71800
O1443       O  0.97635714  0.05284350  0.91847028    -0.71700
O1444       O  0.53710383  0.03878821  0.89066886    -0.71800
O1445       O  0.97551185  0.03982629  0.89099472    -0.71700
O1446       O  0.53810025  0.05168479  0.91810048    -0.71900
V1447       V  0.50136118  0.49932628  0.90802230     1.35200
V1448       V  0.00671289  0.04488216  0.90466273     1.35200
C1449       C  0.54842741  0.02945001  0.92518272     0.77500
C1450       C  0.96487883  0.01346371  0.88866819     0.77600
C1451       C  0.54802280  0.01229473  0.88861844     0.77500
C1452       C  0.96580213  0.03088551  0.92552508     0.77400
C1453       C  0.72854612  0.98812343  0.81032720     0.02400
C1454       C  0.72822129  0.98836217  0.82517155     0.02300
C1455       C  0.75607579  0.98868258  0.83250425    -0.18200
C1456       C  0.78422786  0.98915399  0.82556697     0.02400
C1457       C  0.78488563  0.98891475  0.81083292     0.02300
C1458       C  0.75704820  0.98874859  0.80337456    -0.18200
H1459       H  0.75763153  0.98791593  0.79207885     0.04400
H1460       H  0.75586394  0.98953630  0.84381192     0.04400
C1461       C  0.99920546  0.18804772  0.68200622     0.02400
C1462       C  0.00112156  0.18762790  0.66723725     0.02300
C1463       C  0.00273052  0.21536112  0.65989566    -0.18200
C1464       C  0.00192441  0.24374120  0.66677402     0.02400
C1465       C  0.99967762  0.24441901  0.68152641     0.02300
C1466       C  0.99853667  0.21651533  0.68889968    -0.18200
H1467       H  0.99732105  0.21694329  0.70019445     0.04400
H1468       H  0.00420780  0.21483776  0.64860132     0.04400
O1469       O  0.97633069  0.43491566  0.59760758    -0.71700
O1470       O  0.97352364  0.99766663  0.57027436    -0.71900
O1471       O  0.97537273  0.43423812  0.56961055    -0.71800
O1472       O  0.97689871  0.99766718  0.59829115    -0.71800
O1473       O  0.52632357  0.99756528  0.59714839    -0.71700
O1474       O  0.52483689  0.43618562  0.56839492    -0.71800
O1475       O  0.52310655  0.99728740  0.56913607    -0.71700
O1476       O  0.52584698  0.43355055  0.59644574    -0.71900
V1477       V  0.97614573  0.46540227  0.58338546     1.35200
V1478       V  0.52375301  0.46577201  0.58308762     1.35200
C1479       C  0.00144015  0.42329894  0.60161650     0.77500
C1480       C  0.99777307  0.00789478  0.56487039     0.77600
C1481       C  0.00000043  0.42463319  0.56421176     0.77500
C1482       C  0.00214078  0.00828368  0.60240011     0.77400
C1483       C  0.99601276  0.18797113  0.50059909     0.02400
C1484       C  0.00064214  0.18735616  0.48600765     0.02300
C1485       C  0.00297499  0.21515141  0.47869481    -0.18200
C1486       C  0.00053328  0.24344419  0.48559372     0.02400
C1487       C  0.99635704  0.24395364  0.50020393     0.02300
C1488       C  0.99383888  0.21621898  0.50750617    -0.18200
H1489       H  0.99104789  0.21660886  0.51874521     0.04400
H1490       H  0.00576929  0.21477548  0.46745752     0.04400
C1491       C  0.99881895  0.43838456  0.73913405     0.86600
C1492       C  0.97277238  0.44403934  0.74965898    -0.53700
C1493       C  0.97450199  0.47098560  0.75684891     0.09500
C1494       C  0.50644701  0.98791105  0.75323248     0.20500
C1495       C  0.49799323  0.46697590  0.72971434    -0.54400
C1496       C  0.00250826  0.99318957  0.73734875     0.09600
C1497       C  0.52791249  0.44164860  0.74776980    -0.53900
C1498       C  0.53022420  0.46849824  0.75508045     0.10200
H1499       H  0.95371129  0.42888985  0.75130546     0.14700
H1500       H  0.50758536  0.00932727  0.75944321     0.00400
H1501       H  0.49619939  0.46582115  0.71842093     0.15000
H1502       H  0.54551547  0.42402320  0.74795365     0.14800
O1503       O  0.51239032  0.43782939  0.38943625    -0.71700
O1504       O  0.51962274  0.99658939  0.41625757    -0.71900
O1505       O  0.51854923  0.43708530  0.41731985    -0.71800
O1506       O  0.51391115  0.99741597  0.38835070    -0.71800
O1507       O  0.96471142  0.99855659  0.39076155    -0.71700
O1508       O  0.96929465  0.43847371  0.41976418    -0.71800
O1509       O  0.97042740  0.99628213  0.41868828    -0.71700
O1510       O  0.96310065  0.43853976  0.39189678    -0.71900
V1511       V  0.51486436  0.46826427  0.40351065     1.35200
V1512       V  0.96751649  0.46930085  0.40581221     1.35200
C1513       C  0.48663547  0.42743528  0.38592857     0.77500
C1514       C  0.49598713  0.00675174  0.42231798     0.77600
C1515       C  0.49479029  0.42686220  0.42317075     0.77500
C1516       C  0.48828223  0.00882678  0.38497053     0.77400
C1517       C  0.48167876  0.19085932  0.30681885     0.02400
C1518       C  0.47858378  0.19040759  0.32155390     0.02300
C1519       C  0.47686751  0.21818688  0.32892244    -0.18200
C1520       C  0.47927873  0.24648183  0.32211164     0.02400
C1521       C  0.48276626  0.24707990  0.30746137     0.02300
C1522       C  0.48362234  0.21933289  0.30003254    -0.18200
H1523       H  0.48553381  0.22001620  0.28876292     0.04400
H1524       H  0.47492889  0.21774580  0.34020041     0.04400
C1525       C  0.49909038  0.43771581  0.24882892     0.86600
C1526       C  0.52758906  0.44242487  0.23971481    -0.53700
C1527       C  0.52931045  0.47020562  0.23313611     0.09500
C1528       C  0.00531545  0.99104237  0.23722287     0.20500
C1529       C  0.99765956  0.46570832  0.25840375    -0.54400
C1530       C  0.50118212  0.99498471  0.25297476     0.09600
C1531       C  0.97258842  0.44249448  0.23851652    -0.53900
C1532       C  0.97278563  0.46999216  0.23163657     0.10200
H1533       H  0.54478678  0.42508658  0.23827321     0.14700
H1534       H  0.00491344  0.01297352  0.23144807     0.00400
H1535       H  0.99602252  0.46396396  0.26968345     0.15000
H1536       H  0.95427987  0.42604901  0.23752347     0.14800
C1537       C  0.54161205  0.33713498  0.26582995    -0.17700
C1538       C  0.53948653  0.31116214  0.27424355    -0.19900
C1539       C  0.51393224  0.30686396  0.28280499     0.20700
C1540       C  0.49037201  0.32908191  0.28298920    -0.02800
C1541       C  0.49244289  0.35524285  0.27439538    -0.05900
C1542       C  0.51816509  0.35923900  0.26578769     0.21000
C1543       C  0.96859792  0.37739939  0.27433473     0.19200
C1544       C  0.94322275  0.37337921  0.28308531    -0.17400
C1545       C  0.94120068  0.34760299  0.29170450    -0.19600
C1546       C  0.96445891  0.32530559  0.29169082     0.20700
C1547       C  0.96232804  0.29893608  0.30001881    -0.32600
C1548       C  0.48570222  0.27611151  0.29954333     0.01400
C1549       C  0.51137867  0.28054138  0.29103481    -0.23900
C1550       C  0.52028425  0.38530736  0.25734134    -0.28500
C1551       C  0.49692458  0.40784572  0.25722978     0.07000
C1552       C  0.97091251  0.40323472  0.26568856    -0.27200
H1553       H  0.56160082  0.33987781  0.25930546     0.11800
H1554       H  0.55780328  0.29436078  0.27401197     0.12900
H1555       H  0.92491116  0.39018613  0.28326410     0.12000
H1556       H  0.92133792  0.34501640  0.29832084     0.11200
H1557       H  0.94241160  0.29551267  0.30652805     0.16600
H1558       H  0.52928785  0.26327491  0.29078080     0.12500
H1559       H  0.54060322  0.38752024  0.25114403     0.15400
H1560       H  0.95282148  0.42030933  0.26581354     0.15100
C1561       C  0.94806883  0.05926025  0.28813642    -0.17700
C1562       C  0.94508314  0.08666195  0.29559059    -0.19900
C1563       C  0.96450412  0.11130077  0.29281860     0.20700
C1564       C  0.48679125  0.10814206  0.28220470    -0.02800
C1565       C  0.48938861  0.08065801  0.27449938    -0.05900
C1566       C  0.97029807  0.05613566  0.27766978     0.21000
C1567       C  0.51166018  0.07778861  0.26390772     0.19200
C1568       C  0.53095515  0.10248585  0.26107780    -0.17400
C1569       C  0.52865382  0.12954333  0.26883824    -0.19600
C1570       C  0.50681906  0.13251427  0.27948338     0.20700
C1571       C  0.50497283  0.15924999  0.28757203    -0.32600
C1572       C  0.48301741  0.16229796  0.29823227     0.01400
C1573       C  0.96228725  0.13853583  0.30054421    -0.23900
C1574       C  0.97410076  0.02843257  0.27045287    -0.28500
C1575       C  0.49629147  0.02499730  0.25993059     0.07000
C1576       C  0.51467468  0.05008872  0.25655358    -0.27200
H1577       H  0.93311583  0.04041632  0.29062919     0.11800
H1578       H  0.92787722  0.08841925  0.30367728     0.12900
H1579       H  0.54814633  0.10072061  0.25298686     0.12000
H1580       H  0.54411066  0.14810796  0.26656616     0.11200
H1581       H  0.52098367  0.17757677  0.28570864     0.16600
H1582       H  0.94461852  0.14090363  0.30838192     0.12500
H1583       H  0.95966000  0.00918973  0.27297834     0.15400
H1584       H  0.53207424  0.04765394  0.24857822     0.15100
C1585       C  0.53343130  0.36324709  0.34906110    -0.17700
C1586       C  0.53243039  0.33795770  0.34011047    -0.19900
C1587       C  0.50640532  0.31944879  0.33958708     0.20700
C1588       C  0.98075825  0.32696296  0.34812909    -0.02800
C1589       C  0.98172509  0.35265445  0.35706479    -0.05900
C1590       C  0.50835857  0.37057986  0.35758890     0.21000
C1591       C  0.95631757  0.35997832  0.36552893     0.19200
C1592       C  0.93019491  0.34162333  0.36496006    -0.17400
C1593       C  0.92935251  0.31599913  0.35621947    -0.19600
C1594       C  0.95452689  0.30840683  0.34781409     0.20700
C1595       C  0.95405071  0.28243097  0.33921125    -0.32600
C1596       C  0.47959200  0.27475516  0.33069502     0.01400
C1597       C  0.50547728  0.29357926  0.33089936    -0.23900
C1598       C  0.50948998  0.39540747  0.36686715    -0.28500
C1599       C  0.48439067  0.40256859  0.37547667     0.07000
C1600       C  0.95768413  0.38515062  0.37460596    -0.27200
H1601       H  0.55391316  0.37697933  0.34937400     0.11800
H1602       H  0.55214000  0.33270890  0.33368617     0.12900
H1603       H  0.91050840  0.34689811  0.37139480     0.12000
H1604       H  0.90902835  0.30202646  0.35607840     0.11200
H1605       H  0.93410122  0.26789854  0.33905039     0.16600
H1606       H  0.52506392  0.28767389  0.32449763     0.12500
H1607       H  0.53004457  0.40901015  0.36747545     0.15400
H1608       H  0.93831192  0.39046651  0.38124084     0.15100
C1609       C  0.92917577  0.12048265  0.35496533    -0.17700
C1610       C  0.93052075  0.09498240  0.36376104    -0.19900
C1611       C  0.95708556  0.07684787  0.36444962     0.20700
C1612       C  0.48246185  0.08391921  0.35599476    -0.02800
C1613       C  0.48102328  0.10945031  0.34696929    -0.05900
C1614       C  0.95428521  0.12817924  0.34662230     0.21000
C1615       C  0.50629408  0.11668993  0.33847559     0.19200
C1616       C  0.53263183  0.09821296  0.33901200    -0.17400
C1617       C  0.53416957  0.07312211  0.34806028    -0.19600
C1618       C  0.50931251  0.06590125  0.35666563     0.20700
C1619       C  0.51098487  0.04125959  0.36605261    -0.32600
C1620       C  0.48601663  0.03410396  0.37467106     0.01400
C1621       C  0.95898048  0.05185440  0.37361389    -0.23900
C1622       C  0.95348721  0.15430289  0.33813084    -0.28500
C1623       C  0.47894774  0.16162695  0.32976580     0.07000
C1624       C  0.50499366  0.14261803  0.32983485    -0.27200
H1625       H  0.90855445  0.13434095  0.35477177     0.11800
H1626       H  0.91089212  0.08967181  0.37016796     0.12900
H1627       H  0.55222194  0.10340559  0.33256014     0.12000
H1628       H  0.55491791  0.05947274  0.34839771     0.11200
H1629       H  0.53177293  0.02769800  0.36667782     0.16600
H1630       H  0.93962151  0.04650005  0.38019293     0.12500
H1631       H  0.93334439  0.16888948  0.33801774     0.15400
H1632       H  0.52448822  0.14855186  0.32344524     0.15100
C1633       C  0.94671658  0.33466678  0.46708184    -0.17700
C1634       C  0.94587529  0.36031403  0.45834863    -0.19900
C1635       C  0.97168610  0.36856119  0.45056260     0.20700
C1636       C  0.99872446  0.35095455  0.45171510    -0.02800
C1637       C  0.99947970  0.32485989  0.46042037    -0.05900
C1638       C  0.97331819  0.31667494  0.46812229     0.21000
C1639       C  0.52634563  0.30682164  0.46131132     0.19200
C1640       C  0.55227448  0.31531605  0.45368679    -0.17400
C1641       C  0.55160068  0.34128290  0.44516223    -0.19600
C1642       C  0.52491400  0.35911428  0.44402139     0.20700
C1643       C  0.52374097  0.38452640  0.43507401    -0.32600
C1644       C  0.49660920  0.40167154  0.43352944     0.01400
C1645       C  0.97077277  0.39375770  0.44147125    -0.23900
C1646       C  0.97411121  0.29043190  0.47656385    -0.28500
C1647       C  0.00053320  0.27200066  0.47721960     0.07000
C1648       C  0.52659767  0.28035164  0.46960895    -0.27200
H1649       H  0.92643334  0.32871712  0.47291802     0.11800
H1650       H  0.92494182  0.37360094  0.45761650     0.12900
H1651       H  0.57305247  0.30174904  0.45424625     0.12000
H1652       H  0.57187454  0.34720367  0.43931434     0.11200
H1653       H  0.54372467  0.39040863  0.42900291     0.16600
H1654       H  0.94980258  0.40691075  0.44043371     0.12500
H1655       H  0.95400771  0.28390437  0.48241478     0.15400
H1656       H  0.54695071  0.26611222  0.47013739     0.15100
C1657       C  0.95283996  0.09074432  0.47075456    -0.17700
C1658       C  0.95206302  0.06549978  0.46177395    -0.19900
C1659       C  0.97596304  0.06010324  0.45230925     0.20700
C1660       C  0.00139869  0.07975692  0.45223794    -0.02800
C1661       C  0.00211752  0.10530980  0.46125345    -0.05900
C1662       C  0.97748963  0.11106199  0.47039837     0.21000
C1663       C  0.52694781  0.12576982  0.46064210     0.19200
C1664       C  0.55128675  0.11980700  0.45149614    -0.17400
C1665       C  0.55066785  0.09434955  0.44265618    -0.19600
C1666       C  0.52564160  0.07449358  0.44277109     0.20700
C1667       C  0.52413843  0.04986213  0.43342400    -0.32600
C1668       C  0.49834694  0.03090693  0.43307196     0.01400
C1669       C  0.97453962  0.03591548  0.44267719    -0.23900
C1670       C  0.97751930  0.13750135  0.47870396    -0.28500
C1671       C  0.00192360  0.15817821  0.47806244     0.07000
C1672       C  0.52670190  0.15205825  0.46905314    -0.27200
H1673       H  0.93386982  0.09470425  0.47779899     0.11800
H1674       H  0.93250143  0.05049220  0.46206326     0.12900
H1675       H  0.57061715  0.13508925  0.45103326     0.12000
H1676       H  0.56953948  0.09049155  0.43554653     0.11200
H1677       H  0.54258720  0.04612458  0.42606353     0.16600
H1678       H  0.95472804  0.02120096  0.44252160     0.12500
H1679       H  0.95803184  0.14259893  0.48528661     0.15400
H1680       H  0.54553770  0.16796950  0.46855134     0.15100
C1681       C  0.54898639  0.33539412  0.51851794    -0.17700
C1682       C  0.54984419  0.36034961  0.52770294    -0.19900
C1683       C  0.52431530  0.36789286  0.53592543     0.20700
C1684       C  0.99745842  0.35048905  0.53460539    -0.02800
C1685       C  0.99670219  0.32511704  0.52546325    -0.05900
C1686       C  0.52267147  0.31736805  0.51746228     0.21000
C1687       C  0.97015781  0.30704746  0.52460112     0.19200
C1688       C  0.94438868  0.31498030  0.53253177    -0.17400
C1689       C  0.94501149  0.34029082  0.54143554    -0.19600
C1690       C  0.97149516  0.35796308  0.54264757     0.20700
C1691       C  0.97253846  0.38263502  0.55195986    -0.32600
C1692       C  0.99935170  0.39979256  0.55363071     0.01400
C1693       C  0.52519043  0.39233271  0.54551359    -0.23900
C1694       C  0.52200902  0.29146584  0.50876779    -0.28500
C1695       C  0.99593373  0.27296015  0.50822754     0.07000
C1696       C  0.97004482  0.28098926  0.51606746    -0.27200
H1697       H  0.56908238  0.32991933  0.51238647     0.11800
H1698       H  0.57058168  0.37360783  0.52845597     0.12900
H1699       H  0.92381505  0.30142847  0.53194621     0.12000
H1700       H  0.92487801  0.34579469  0.54753546     0.11200
H1701       H  0.95255399  0.38799267  0.55819764     0.16600
H1702       H  0.54588912  0.40554731  0.54664386     0.12500
H1703       H  0.54203143  0.28513933  0.50273846     0.15400
H1704       H  0.94996578  0.26665826  0.51561939     0.15100
C1705       C  0.94050601  0.10975151  0.52772641    -0.17700
C1706       C  0.94072199  0.08420979  0.53653631    -0.19900
C1707       C  0.96841822  0.07021689  0.54043640     0.20700
C1708       C  0.99611199  0.08155283  0.53505292    -0.02800
C1709       C  0.99588396  0.10716574  0.52606068    -0.05900
C1710       C  0.96796729  0.12165759  0.52258222     0.21000
C1711       C  0.52357780  0.11843201  0.52059601     0.19200
C1712       C  0.55119080  0.10390181  0.52414300    -0.17400
C1713       C  0.55144993  0.07879738  0.53317975    -0.19600
C1714       C  0.52408257  0.06766746  0.53877261     0.20700
C1715       C  0.52431492  0.04324846  0.54826426    -0.32600
C1716       C  0.99689809  0.03231335  0.55409788     0.01400
C1717       C  0.96897142  0.04559072  0.54986813    -0.23900
C1718       C  0.96810514  0.14805225  0.51422329    -0.28500
C1719       C  0.99571518  0.15958009  0.50902810     0.07000
C1720       C  0.52325290  0.14434822  0.51196599    -0.27200
H1721       H  0.91885557  0.12041382  0.52506303     0.11800
H1722       H  0.91922746  0.07571424  0.54049362     0.12900
H1723       H  0.57265910  0.11222718  0.52007994     0.12000
H1724       H  0.57312608  0.06827457  0.53591461     0.11200
H1725       H  0.54594538  0.03297041  0.55127286     0.16600
H1726       H  0.94771030  0.03726129  0.55416254     0.12500
H1727       H  0.94683034  0.15967031  0.51172412     0.15400
H1728       H  0.54447960  0.15324767  0.50787012     0.15100
C1729       C  0.55458812  0.33483526  0.62357243    -0.17700
C1730       C  0.55456410  0.30964965  0.63259145    -0.19900
C1731       C  0.52889787  0.30334943  0.64084550     0.20700
C1732       C  0.00285582  0.32281573  0.63997779    -0.02800
C1733       C  0.50286302  0.34789388  0.63075310    -0.05900
C1734       C  0.52883558  0.35405620  0.62253312     0.21000
C1735       C  0.97660085  0.36692492  0.62960945     0.19200
C1736       C  0.95097176  0.36072493  0.63790861    -0.17400
C1737       C  0.95118885  0.33600203  0.64719436    -0.19600
C1738       C  0.97695833  0.31684163  0.64829505     0.20700
C1739       C  0.97714596  0.29159623  0.65739927    -0.32600
C1740       C  0.00268179  0.27194609  0.65809461     0.01400
C1741       C  0.52855510  0.27790098  0.64979203    -0.23900
C1742       C  0.52848038  0.37909288  0.61331782    -0.28500
C1743       C  0.00220582  0.39785033  0.61191484     0.07000
C1744       C  0.97641286  0.39152616  0.62016274    -0.27200
H1745       H  0.57470640  0.33914715  0.61732302     0.11800
H1746       H  0.57465040  0.29505853  0.63310022     0.12900
H1747       H  0.93069236  0.37500238  0.63720636     0.12000
H1748       H  0.93107606  0.33173723  0.65345279     0.11200
H1749       H  0.95719931  0.28671944  0.66368661     0.16600
H1750       H  0.54820858  0.26269505  0.65027858     0.12500
H1751       H  0.54840584  0.38363612  0.60696447     0.15400
H1752       H  0.95616455  0.40581150  0.61924908     0.15100
C1753       C  0.55758510  0.08794381  0.62891951    -0.17700
C1754       C  0.55747120  0.11279324  0.63815155    -0.19900
C1755       C  0.53012669  0.12285763  0.64433982     0.20700
C1756       C  0.00278587  0.10770459  0.64115089    -0.02800
C1757       C  0.00298980  0.08242022  0.63195727    -0.05900
C1758       C  0.53038730  0.07257647  0.62577703     0.21000
C1759       C  0.97553598  0.06704637  0.62897405     0.19200
C1760       C  0.94821914  0.07688449  0.63524674    -0.17400
C1761       C  0.94792879  0.10222460  0.64415418    -0.19600
C1762       C  0.97502101  0.11790185  0.64709042     0.20700
C1763       C  0.97472841  0.14395329  0.65563149    -0.32600
C1764       C  0.00201097  0.15892632  0.65899662     0.01400
C1765       C  0.52964629  0.14820283  0.65337211    -0.23900
C1766       C  0.53017886  0.04798102  0.61631980    -0.28500
C1767       C  0.00291154  0.03309025  0.61295979     0.07000
C1768       C  0.97571344  0.04247799  0.61957017    -0.27200
H1769       H  0.57895416  0.08082657  0.62418426     0.11800
H1770       H  0.57875186  0.12432551  0.64035388     0.12900
H1771       H  0.92696516  0.06525346  0.63309394     0.12000
H1772       H  0.92646907  0.10964666  0.64870638     0.11200
H1773       H  0.95318300  0.15299340  0.65943943     0.16600
H1774       H  0.55061214  0.16021615  0.65570419     0.12500
H1775       H  0.55129144  0.04081970  0.61135215     0.15400
H1776       H  0.95448304  0.03093855  0.61724120     0.15100
C1777       C  0.95235584  0.33739173  0.72561994    -0.17700
C1778       C  0.95241633  0.31081749  0.71748237    -0.19900
C1779       C  0.97556642  0.30557933  0.70763127     0.20700
C1780       C  0.99892805  0.32734016  0.70599919    -0.02800
C1781       C  0.99886306  0.35421352  0.71425310    -0.05900
C1782       C  0.97542084  0.35927436  0.72407820     0.21000
C1783       C  0.52245097  0.37597683  0.71261718     0.19200
C1784       C  0.54583006  0.37059235  0.70286388    -0.17400
C1785       C  0.54604021  0.34393985  0.69471947    -0.19600
C1786       C  0.52288139  0.32213774  0.69616755     0.20700
C1787       C  0.52287080  0.29529619  0.68804743    -0.32600
C1788       C  0.99907839  0.27360004  0.68960514     0.01400
C1789       C  0.97582209  0.27890999  0.69945297    -0.23900
C1790       C  0.97530454  0.38607058  0.73217141    -0.28500
C1791       C  0.99827027  0.40841343  0.73065762     0.07000
C1792       C  0.52184081  0.40283735  0.72072818    -0.27200
H1793       H  0.93415185  0.34085853  0.73313790     0.11800
H1794       H  0.93433395  0.29433993  0.71889357     0.12900
H1795       H  0.56394114  0.38705738  0.70150176     0.12000
H1796       H  0.56431515  0.34040821  0.68726141     0.11200
H1797       H  0.54117693  0.29110266  0.68066941     0.16600
H1798       H  0.95790222  0.26217016  0.70073259     0.12500
H1799       H  0.95694712  0.38888132  0.73957514     0.15400
H1800       H  0.53969855  0.41961625  0.71940394     0.15100
C1801       C  0.95189511  0.08961856  0.69564065    -0.17700
C1802       C  0.95231289  0.06249937  0.70339805    -0.19900
C1803       C  0.97561207  0.05682157  0.71315400     0.20700
C1804       C  0.49844756  0.07880433  0.71532427    -0.02800
C1805       C  0.49854636  0.10587945  0.70723030    -0.05900
C1806       C  0.97504193  0.11135504  0.69732690     0.21000
C1807       C  0.52204321  0.12746186  0.70897749     0.19200
C1808       C  0.54481619  0.12208389  0.71903392    -0.17400
C1809       C  0.54445602  0.09550580  0.72720383    -0.19600
C1810       C  0.52152109  0.07358406  0.72536947     0.20700
C1811       C  0.52164795  0.04624815  0.73314008    -0.32600
C1812       C  0.99998555  0.02367754  0.73051101     0.01400
C1813       C  0.97664678  0.02930793  0.72071208    -0.23900
C1814       C  0.97502916  0.13840555  0.68941685    -0.28500
C1815       C  0.99901609  0.15947744  0.69056913     0.07000
C1816       C  0.52238157  0.15392749  0.70061018    -0.27200
H1817       H  0.93366254  0.09340753  0.68817371     0.11800
H1818       H  0.93442517  0.04590430  0.70173507     0.12900
H1819       H  0.56297840  0.13843321  0.72056978     0.12000
H1820       H  0.56238129  0.09190456  0.73484091     0.11200
H1821       H  0.53957745  0.04200498  0.74069201     0.16600
H1822       H  0.95943347  0.01205917  0.71889532     0.12500
H1823       H  0.95602724  0.14326576  0.68255937     0.15400
H1824       H  0.54061928  0.17034939  0.70181474     0.15100
C1825       C  0.89976299  0.43842858  0.79201202    -0.17700
C1826       C  0.87165456  0.44236662  0.79872407    -0.19900
C1827       C  0.85509572  0.46977272  0.79727135     0.20700
C1828       C  0.86735598  0.49378990  0.78924784    -0.02800
C1829       C  0.89587235  0.48980802  0.78245566    -0.05900
C1830       C  0.91183488  0.46181439  0.78370947     0.21000
C1831       C  0.90985602  0.00443352  0.77381893     0.19200
C1832       C  0.89069295  0.02998130  0.77183003    -0.17400
C1833       C  0.86242472  0.03212002  0.77866225    -0.19600
C1834       C  0.85272324  0.00877759  0.78764388     0.20700
C1835       C  0.82396563  0.01028665  0.79423368    -0.32600
C1836       C  0.81457043  0.98682725  0.80325621     0.01400
C1837       C  0.82640215  0.47341492  0.80361750    -0.23900
C1838       C  0.93889776  0.45709641  0.77616817    -0.28500
C1839       C  0.95018654  0.47965235  0.76709745     0.07000
C1840       C  0.93520521  0.50825598  0.76649898    -0.27200
H1841       H  0.91180099  0.41681826  0.79310073     0.11800
H1842       H  0.86266444  0.42378394  0.80491549     0.12900
H1843       H  0.89733101  0.04810228  0.76478600     0.12000
H1844       H  0.84796717  0.05191286  0.77678517     0.11200
H1845       H  0.80905117  0.02982865  0.79251942     0.16600
H1846       H  0.81695716  0.45490970  0.80972605     0.12500
H1847       H  0.95051368  0.43515250  0.77682786     0.15400
H1848       H  0.94372907  0.01819026  0.75865217     0.15100
C1849       C  0.61366590  0.43096048  0.78570983    -0.17700
C1850       C  0.64097728  0.43560738  0.79297656    -0.19900
C1851       C  0.65406315  0.46476348  0.79359196     0.20700
C1852       C  0.63925314  0.48959119  0.78694324    -0.02800
C1853       C  0.61147827  0.48491456  0.77967857    -0.05900
C1854       C  0.59884318  0.45540519  0.77896862     0.21000
C1855       C  0.61023216  0.99944109  0.76818161     0.19200
C1856       C  0.63177367  0.02192363  0.76483181    -0.17400
C1857       C  0.65926570  0.02408340  0.77230633    -0.19600
C1858       C  0.66582813  0.00381278  0.78329675     0.20700
C1859       C  0.69337668  0.00581094  0.79089125    -0.32600
C1860       C  0.69968802  0.98551887  0.80196976     0.01400
C1861       C  0.68168508  0.46949710  0.80072119    -0.23900
C1862       C  0.57188591  0.45066726  0.77135408    -0.28500
C1863       C  0.55715448  0.47493111  0.76429218     0.07000
C1864       C  0.58280942  0.99660927  0.76053689    -0.27200
H1865       H  0.60422201  0.40815145  0.78528747     0.11800
H1866       H  0.65198911  0.41631553  0.79804158     0.12900
H1867       H  0.62742292  0.03778826  0.75637347     0.12000
H1868       H  0.67544781  0.04162183  0.76946483     0.11200
H1869       H  0.70972344  0.02342628  0.78833995     0.16600
H1870       H  0.69297354  0.45054560  0.80594702     0.12500
H1871       H  0.56244736  0.42786260  0.77087567     0.15400
H1872       H  0.57829836  0.01166812  0.75180517     0.15100
C1873       C  0.88337801  0.94928749  0.86834496    -0.17700
C1874       C  0.85780186  0.94601143  0.85970356    -0.19900
C1875       C  0.84827535  0.97005891  0.85100040     0.20700
C1876       C  0.86517041  0.99743391  0.85075927    -0.02800
C1877       C  0.89079835  0.00086500  0.85960729    -0.05900
C1878       C  0.89976625  0.97675751  0.86852525     0.21000
C1879       C  0.90702170  0.02863021  0.85973608     0.19200
C1880       C  0.89809935  0.05231361  0.85069151    -0.17400
C1881       C  0.87294106  0.04879863  0.84181808    -0.19600
C1882       C  0.85609771  0.02162465  0.84189648     0.20700
C1883       C  0.83003904  0.01842268  0.83347451    -0.32600
C1884       C  0.81263378  0.99158784  0.83398480     0.01400
C1885       C  0.82191851  0.96743453  0.84270886    -0.23900
C1886       C  0.92451240  0.98075779  0.87768149    -0.28500
C1887       C  0.94017025  0.00874816  0.87824471     0.07000
C1888       C  0.93147801  0.03243932  0.86908374    -0.27200
H1889       H  0.89003746  0.93048441  0.87507134     0.11800
H1890       H  0.84715519  0.43324595  0.85165134     0.12900
H1891       H  0.91039559  0.07371409  0.85058366     0.12000
H1892       H  0.86636450  0.06754435  0.83504177     0.11200
H1893       H  0.82281095  0.03702814  0.82673907     0.16600
H1894       H  0.80856518  0.94667293  0.84301046     0.12500
H1895       H  0.93103109  0.96232161  0.88465076     0.15400
H1896       H  0.94353885  0.05398531  0.86932479     0.15100
C1897       C  0.63957694  0.95479419  0.87318009    -0.17700
C1898       C  0.66475884  0.95144860  0.86430705    -0.19900
C1899       C  0.66913747  0.97178987  0.85318011     0.20700
C1900       C  0.64778123  0.99560487  0.85089690    -0.02800
C1901       C  0.62248899  0.99915200  0.85993723    -0.05900
C1902       C  0.61839601  0.97863200  0.87112812     0.21000
C1903       C  0.60160500  0.02350420  0.85790856     0.19200
C1904       C  0.60579130  0.04361255  0.84667595    -0.17400
C1905       C  0.63070365  0.03995192  0.83765701    -0.19600
C1906       C  0.65199397  0.01622612  0.83975054     0.20700
C1907       C  0.67776953  0.01319662  0.83110908    -0.32600
C1908       C  0.69945567  0.98985588  0.83348138     0.01400
C1909       C  0.69478841  0.96909042  0.84447005    -0.23900
C1910       C  0.59348109  0.98257631  0.88019128    -0.28500
C1911       C  0.57298001  0.00720505  0.87843483     0.07000
C1912       C  0.57716433  0.02754325  0.86724603    -0.27200
H1913       H  0.63682812  0.93889001  0.88173884     0.11800
H1914       H  0.68094556  0.93304919  0.86621013     0.12900
H1915       H  0.58990452  0.06234129  0.84492293     0.12000
H1916       H  0.63353029  0.05593653  0.82913636     0.11200
H1917       H  0.68147141  0.02951286  0.82278744     0.16600
H1918       H  0.71142859  0.95105011  0.84632488     0.12500
H1919       H  0.59054340  0.96698489  0.88886544     0.15400
H1920       H  0.56137181  0.04650271  0.86580940     0.15100
C1921       C  0.89586635  0.04222150  0.22108272    -0.17700
C1922       C  0.86795117  0.04869443  0.21451920    -0.19900
C1923       C  0.85437909  0.02716057  0.20563824     0.20700
C1924       C  0.86342224  0.50567936  0.20283790    -0.02800
C1925       C  0.89151122  0.49736603  0.20915049    -0.05900
C1926       C  0.91070125  0.01402170  0.21895636     0.21000
C1927       C  0.90103735  0.46649628  0.20921733     0.19200
C1928       C  0.88250889  0.44421349  0.20302732    -0.17400
C1929       C  0.85450138  0.45233886  0.19701099    -0.19600
C1930       C  0.84472017  0.48294961  0.19689785     0.20700
C1931       C  0.81664757  0.49120475  0.19087931    -0.32600
C1932       C  0.80750238  0.52198498  0.19018457     0.01400
C1933       C  0.82639756  0.03354161  0.19896368    -0.23900
C1934       C  0.93834107  0.00707889  0.22580605    -0.28500
C1935       C  0.94637347  0.48012834  0.22277649     0.07000
C1936       C  0.92854509  0.45823626  0.21575728    -0.27200
H1937       H  0.90576977  0.05923766  0.22791157     0.11800
H1938       H  0.85696653  0.07059957  0.21639122     0.12900
H1939       H  0.88948910  0.42038843  0.20301111     0.12000
H1940       H  0.84048957  0.43465570  0.19242379     0.11200
H1941       H  0.80215855  0.47378661  0.18636791     0.16600
H1942       H  0.81502271  0.05535274  0.20061614     0.12500
H1943       H  0.94816051  0.02356302  0.23293770     0.15400
H1944       H  0.93566716  0.43446116  0.21564531     0.15100
C1945       C  0.66563705  0.46242766  0.21475782    -0.17700
C1946       C  0.63911127  0.45464450  0.22195771    -0.19900
C1947       C  0.61225790  0.47204842  0.22033630     0.20700
C1948       C  0.61214202  0.49769970  0.21150501    -0.02800
C1949       C  0.63926374  0.50609597  0.20450420    -0.05900
C1950       C  0.66597927  0.48814199  0.20604944     0.21000
C1951       C  0.64528312  0.02761782  0.19593513     0.19200
C1952       C  0.61873612  0.04563498  0.19431581    -0.17400
C1953       C  0.59170681  0.03837756  0.20148877    -0.19600
C1954       C  0.58505738  0.51498565  0.20973802     0.20700
C1955       C  0.55796692  0.50589606  0.21655586    -0.32600
C1956       C  0.55778439  0.48016545  0.22548502     0.01400
C1957       C  0.58564147  0.46408062  0.22747593    -0.23900
C1958       C  0.69261041  0.49606769  0.19886449    -0.28500
C1959       C  0.69355121  0.52234481  0.19042940     0.07000
C1960       C  0.67269610  0.03460787  0.18887660    -0.27200
H1961       H  0.68597084  0.44843859  0.21608438     0.11800
H1962       H  0.63952545  0.43478198  0.22870557     0.12900
H1963       H  0.61883137  0.06530514  0.18745544     0.12000
H1964       H  0.57162104  0.05262332  0.19998018     0.11200
H1965       H  0.54331565  0.01915349  0.21631815     0.16600
H1966       H  0.58735332  0.44535399  0.23476074     0.12500
H1967       H  0.71266301  0.48149793  0.19975457     0.15400
H1968       H  0.67362219  0.05472542  0.18231748     0.15100
C1969       C  0.88176509  0.99624613  0.97483469    -0.17700
C1970       C  0.90729215  0.99422959  0.96611209    -0.19900
C1971       C  0.91255749  0.01668732  0.95596684     0.20700
C1972       C  0.89252020  0.04201958  0.95492674    -0.02800
C1973       C  0.86669593  0.04402518  0.96372131    -0.05900
C1974       C  0.86108441  0.02075660  0.97355988     0.21000
C1975       C  0.84606017  0.06881976  0.96238967     0.19200
C1976       C  0.85190151  0.09179201  0.95254956    -0.17400
C1977       C  0.87755186  0.08985562  0.94386263    -0.19600
C1978       C  0.89777907  0.06486839  0.94483471     0.20700
C1979       C  0.92259118  0.06181677  0.93562113    -0.32600
C1980       C  0.94177247  0.03586609  0.93617849     0.01400
C1981       C  0.93695187  0.01374727  0.94657277    -0.23900
C1982       C  0.83455505  0.02201383  0.98172537    -0.28500
C1983       C  0.81370005  0.04646729  0.98037791     0.07000
C1984       C  0.81970090  0.06988385  0.97073514    -0.27200
H1985       H  0.87791669  0.97834629  0.98242524     0.11800
H1986       H  0.92261257  0.97477720  0.96712434     0.12900
H1987       H  0.83638326  0.11105786  0.95143135     0.12000
H1988       H  0.88127073  0.10764808  0.93620738     0.11200
H1989       H  0.92621054  0.07898618  0.92765581     0.16600
H1990       H  0.95189077  0.99390028  0.94718541     0.12500
H1991       H  0.82975195  0.00358888  0.98893165     0.15400
H1992       H  0.80367913  0.08877225  0.96967733     0.15100
C1993       C  0.63608919  0.08815997  0.94339373    -0.17700
C1994       C  0.66134874  0.09060659  0.95227667    -0.19900
C1995       C  0.66774714  0.06769999  0.96212117     0.20700
C1996       C  0.64829148  0.04220645  0.96312609    -0.02800
C1997       C  0.62290102  0.03964088  0.95409641    -0.05900
C1998       C  0.61682868  0.06270678  0.94415886     0.21000
C1999       C  0.60392961  0.01375910  0.95485728     0.19200
C2000       C  0.61012242  0.99100714  0.96481061    -0.17400
C2001       C  0.63519039  0.99360703  0.97379023    -0.19600
C2002       C  0.65454885  0.01896425  0.97294941     0.20700
C2003       C  0.68042486  0.02113861  0.98152968    -0.32600
C2004       C  0.70012304  0.04628863  0.98047457     0.01400
C2005       C  0.69354285  0.06955090  0.97079244    -0.23900
C2006       C  0.59193867  0.05967389  0.93501017    -0.28500
C2007       C  0.57333838  0.03360659  0.93548738     0.07000
C2008       C  0.57940141  0.01084995  0.94551671    -0.27200
H2009       H  0.63179240  0.10605742  0.93581924     0.11800
H2010       H  0.67603412  0.11032904  0.95136966     0.12900
H2011       H  0.58627119  0.46864855  0.96627215     0.12000
H2012       H  0.62984244  0.47193284  0.98227716     0.11200
H2013       H  0.68581729  0.00276714  0.98872062     0.16600
H2014       H  0.70877798  0.08887910  0.96991587     0.12500
H2015       H  0.58754449  0.07722148  0.92726944     0.15400
H2016       H  0.56511239  0.99074546  0.94600324     0.15100
C2017       C  0.85081782  0.59509302  0.13862415    -0.17700
C2018       C  0.87580206  0.59516369  0.12951329    -0.19900
C2019       C  0.89201497  0.56802888  0.12668492     0.20700
C2020       C  0.88299367  0.54055433  0.13313947    -0.02800
C2021       C  0.86407461  0.02736376  0.14202032    -0.05900
C2022       C  0.84162424  0.56789662  0.14508694     0.21000
C2023       C  0.84658618  0.00045926  0.14302296     0.19200
C2024       C  0.85470199  0.97476609  0.13503149    -0.17400
C2025       C  0.87982486  0.97571728  0.12604230    -0.19600
C2026       C  0.89716972  0.00243676  0.12482594     0.20700
C2027       C  0.92206304  0.00367602  0.11564188    -0.32600
C2028       C  0.93270234  0.54043666  0.11443266     0.01400
C2029       C  0.91688291  0.56782158  0.11742505    -0.23900
C2030       C  0.81624896  0.56747719  0.15404899    -0.28500
C2031       C  0.80700324  0.54004177  0.16031095     0.07000
C2032       C  0.82098937  0.99990264  0.15180768    -0.27200
H2033       H  0.83859428  0.61630834  0.14056907     0.11800
H2034       H  0.88236179  0.61644613  0.12462311     0.12900
H2035       H  0.84152151  0.95395169  0.13568579     0.12000
H2036       H  0.88555472  0.95559373  0.11995133     0.11200
H2037       H  0.92789758  0.98370071  0.10945836     0.16600
H2038       H  0.92363050  0.58890382  0.11239869     0.12500
H2039       H  0.80339327  0.58832290  0.15602903     0.15400
H2040       H  0.80708595  0.97953437  0.15240833     0.15100
C2041       C  0.63439814  0.48613476  0.14745794    -0.17700
C2042       C  0.60896846  0.48631207  0.13860419    -0.19900
C2043       C  0.60027825  0.51311719  0.13154483     0.20700
C2044       C  0.61729354  0.54006658  0.13348240    -0.02800
C2045       C  0.64878650  0.03100436  0.14200000    -0.05900
C2046       C  0.65163715  0.51272612  0.14936688     0.19200
C2047       C  0.66671975  0.05742048  0.14377017     0.19200
C2048       C  0.65862856  0.08444897  0.13675801    -0.17400
C2049       C  0.63305862  0.08530269  0.12799701    -0.19600
C2050       C  0.61525250  0.05909103  0.12603760     0.20700
C2051       C  0.59000281  0.05955556  0.11700817    -0.32600
C2052       C  0.56661499  0.54020687  0.11530872     0.01400
C2053       C  0.57513919  0.51333762  0.12244371    -0.23900
C2054       C  0.67743397  0.51261967  0.15805713    -0.28500
C2055       C  0.69473632  0.53927159  0.15983683     0.07000
C2056       C  0.69257319  0.05622476  0.15240942    -0.27200
H2057       H  0.64068142  0.46513675  0.15276054     0.11800
H2058       H  0.59615368  0.46542701  0.13723592     0.12900
H2059       H  0.67214336  0.10491850  0.13801452     0.12000
H2060       H  0.62735134  0.10641781  0.12265959     0.11200
H2061       H  0.58421802  0.08042872  0.11148031     0.16600
H2062       H  0.56237375  0.49249288  0.12081784     0.12500
H2063       H  0.68433254  0.49176031  0.16333541     0.15400
H2064       H  0.70667101  0.07630746  0.15369994     0.15100
C2065       C  0.88315519  0.08500269  0.01969926    -0.17700
C2066       C  0.90844993  0.08365883  0.02861732    -0.19900
C2067       C  0.91281160  0.05853510  0.03751725     0.20700
C2068       C  0.89193251  0.03411839  0.03716631    -0.02800
C2069       C  0.86622875  0.03563534  0.02828788    -0.05900
C2070       C  0.86167962  0.06135361  0.01960979     0.21000
C2071       C  0.84472563  0.01176446  0.02835025     0.19200
C2072       C  0.84860862  0.48213078  0.03641821    -0.17400
C2073       C  0.87398350  0.48260682  0.04527276    -0.19600
C2074       C  0.89631258  0.00853019  0.04593378     0.20700
C2075       C  0.91731794  0.50958023  0.05523548    -0.32600
C2076       C  0.94141203  0.03254389  0.05591235     0.01400
C2077       C  0.93725822  0.05771183  0.04698604    -0.23900
C2078       C  0.83540684  0.06325897  0.01124559    -0.28500
C2079       C  0.81357436  0.03988699  0.01154621     0.07000
C2080       C  0.81849672  0.01412247  0.02002156    -0.27200
H2081       H  0.88010123  0.10480895  0.01304752     0.11800
H2082       H  0.92440448  0.10247239  0.02868274     0.12900
H2083       H  0.83435624  0.46199352  0.03620331     0.12000
H2084       H  0.87884473  0.46280586  0.05171114     0.11200
H2085       H  0.92213564  0.49001845  0.06184257     0.16600
H2086       H  0.95293549  0.07675051  0.04749906     0.12500
H2087       H  0.83151862  0.08318902  0.00474561     0.15400
H2088       H  0.80173579  0.99599991  0.02015056     0.15100
C2089       C  0.62636174  0.48107623  0.04381219    -0.17700
C2090       C  0.65177558  0.48071894  0.03496709    -0.19900
C2091       C  0.66089026  0.50746245  0.02810457     0.20700
C2092       C  0.64904916  0.03842337  0.02905081    -0.02800
C2093       C  0.62362319  0.03716093  0.03809261    -0.05900
C2094       C  0.60977865  0.50824463  0.04604331     0.21000
C2095       C  0.60576676  0.06364195  0.04050675     0.19200
C2096       C  0.61313894  0.09096768  0.03365265    -0.17400
C2097       C  0.63812956  0.09213754  0.02456471    -0.19600
C2098       C  0.65633461  0.06606174  0.02224957     0.20700
C2099       C  0.68197413  0.06720692  0.01345894    -0.32600
C2100       C  0.70067333  0.04125707  0.01166890     0.01400
C2101       C  0.68664735  0.50743853  0.01939470    -0.23900
C2102       C  0.58465346  0.50891845  0.05512729    -0.28500
C2103       C  0.57385324  0.03497737  0.05672774     0.07000
C2104       C  0.58111124  0.06241872  0.04985584    -0.27200
H2105       H  0.61982347  0.46013183  0.04900469     0.11800
H2106       H  0.66435090  0.45951724  0.03351591     0.12900
H2107       H  0.59964216  0.11150034  0.03536952     0.12000
H2108       H  0.64340708  0.11353934  0.01945505     0.11200
H2109       H  0.68792067  0.08839588  0.00830403     0.16600
H2110       H  0.69996901  0.48665712  0.01798923     0.12500
H2111       H  0.57799195  0.48815840  0.06045101     0.15400
H2112       H  0.56766009  0.08288353  0.05183136     0.15100
O2113       O  0.53714828  0.00810129  0.09973967    -0.71700
O2114       O  0.97723017  0.00806096  0.07106117    -0.71900
O2115       O  0.53904982  0.00897055  0.07178936    -0.71800
O2116       O  0.97564309  0.00739635  0.09892466    -0.71800
O2117       O  0.96874137  0.56446038  0.09922189    -0.71700
O2118       O  0.53189501  0.56232075  0.07196539    -0.71800
O2119       O  0.97031241  0.56242867  0.07121048    -0.71700
O2120       O  0.53064284  0.56425149  0.09990034    -0.71900
V2121       V  0.50731966  0.00889683  0.08534213     1.35200
V2122       V  0.00033729  0.56248641  0.08559091     1.35200
C2123       C  0.54776674  0.03295803  0.10435050     0.77500
C2124       C  0.95985667  0.53720821  0.06693400     0.77600
C2125       C  0.54306106  0.53716335  0.06778927     0.77500
C2126       C  0.96440399  0.03181117  0.10389766     0.77400
C2127       C  0.72344225  0.53446130  0.00384234     0.02400
C2128       C  0.72269684  0.53912492  0.98923903     0.02300
C2129       C  0.75044706  0.54147015  0.98191824    -0.18200
C2130       C  0.77870423  0.53881592  0.98877359     0.02400
C2131       C  0.77929644  0.53416217  0.00334581     0.02300
C2132       C  0.75167857  0.53182328  0.01067732    -0.18200
H2133       H  0.75215688  0.52884952  0.02190813     0.04400
H2134       H  0.75008941  0.54419080  0.97067750     0.04400
C2135       C  0.72805810  0.02142944  0.18251899     0.02400
C2136       C  0.72850984  0.02770005  0.16800115     0.02300
C2137       C  0.75070717  0.54406472  0.16189201    -0.18200
C2138       C  0.78435588  0.02548644  0.16799127     0.02400
C2139       C  0.78436453  0.01926786  0.18241767     0.02300
C2140       C  0.75632262  0.01800330  0.18957591    -0.18200
H2141       H  0.75654748  0.01315010  0.20065976     0.04400
H2142       H  0.75081289  0.55001303  0.15090792     0.04400
O2143       O  0.53725704  0.00328114  0.92306693    -0.71700
O2144       O  0.97561540  0.99126897  0.89563677    -0.71900
O2145       O  0.53751624  0.99039832  0.89572510    -0.71800
O2146       O  0.97598581  0.00425997  0.92309728    -0.71800
O2147       O  0.97077874  0.55181136  0.91931953    -0.71700
O2148       O  0.53136322  0.54335917  0.89095805    -0.71800
O2149       O  0.96988130  0.54395322  0.89157919    -0.71700
O2150       O  0.53266167  0.55125151  0.91875300    -0.71900
V2151       V  0.50661322  0.99818746  0.90925197     1.35200
V2152       V  0.00116370  0.54660798  0.90523985     1.35200
C2153       C  0.54283115  0.52804019  0.92516294     0.77500
C2154       C  0.95943873  0.51812226  0.88817363     0.77600
C2155       C  0.54276966  0.51745269  0.88799291     0.77500
C2156       C  0.95974173  0.52851951  0.92525486     0.77400
C2157       C  0.72367054  0.50315947  0.80917768     0.02400
C2158       C  0.72316600  0.50453910  0.82392384     0.02300
C2159       C  0.75084517  0.50590138  0.83128178    -0.18200
C2160       C  0.77902189  0.50570685  0.82433262     0.02400
C2161       C  0.77988871  0.50422737  0.80960971     0.02300
C2162       C  0.75206845  0.50322475  0.80215016    -0.18200
H2163       H  0.75253635  0.50122302  0.79088296     0.04400
H2164       H  0.75046864  0.50712399  0.84258209     0.04400
C2165       C  0.00485963  0.68806728  0.68115831     0.02400
C2166       C  0.00317686  0.68738652  0.66639919     0.02300
C2167       C  0.00451754  0.71495874  0.65891616    -0.18200
C2168       C  0.00696911  0.74326150  0.66576150     0.02400
C2169       C  0.00780810  0.74420568  0.68049386     0.02300
C2170       C  0.00708434  0.71652490  0.68798408    -0.18200
H2171       H  0.00761706  0.71720467  0.69928833     0.04400
H2172       H  0.00349243  0.71439818  0.64761370     0.04400
O2173       O  0.97690016  0.93610981  0.59836561    -0.71700
O2174       O  0.97413108  0.49585359  0.56917890    -0.71900
O2175       O  0.97330702  0.93608273  0.57048070    -0.71800
O2176       O  0.97483060  0.49662289  0.59718958    -0.71800
O2177       O  0.52438292  0.49540419  0.59776335    -0.71700
O2178       O  0.52307962  0.93584412  0.56917406    -0.71800
O2179       O  0.52363477  0.49782420  0.56966037    -0.71700
O2180       O  0.52648195  0.93573226  0.59708956    -0.71900
V2181       V  0.97613189  0.96691207  0.58433722     1.35200
V2182       V  0.52379085  0.96664341  0.58317596     1.35200
C2183       C  0.00221507  0.92492369  0.60233527     0.77500
C2184       C  0.99853191  0.50773483  0.56471781     0.77600
C2185       C  0.99741600  0.92513790  0.56515036     0.77500
C2186       C  0.99945295  0.50667452  0.60226919     0.77400
C2187       C  0.99513846  0.69024476  0.50171104     0.02400
C2188       C  0.00215181  0.68950308  0.48733239     0.02300
C2189       C  0.00497669  0.71705915  0.47993739    -0.18200
C2190       C  0.00041553  0.74535304  0.48654015     0.02400
C2191       C  0.99323952  0.74602606  0.50090119     0.02300
C2192       C  0.99052343  0.71849759  0.50831529    -0.18200
H2193       H  0.98599928  0.71910916  0.51943434     0.04400
H2194       H  0.00955770  0.71644881  0.46882415     0.04400
C2195       C  0.00388456  0.93728325  0.73861187     0.86600
C2196       C  0.97865456  0.94068302  0.74975507    -0.53700
C2197       C  0.97971541  0.96717789  0.75729942     0.09500
C2198       C  0.50249293  0.49024557  0.75277612     0.20500
C2199       C  0.50078457  0.96651418  0.72988242    -0.54400
C2200       C  0.00016386  0.49404177  0.73683235     0.09600
C2201       C  0.53343262  0.94083078  0.74691807    -0.53900
C2202       C  0.53520169  0.96722606  0.75452423     0.10200
H2203       H  0.96096958  0.92418752  0.75174114     0.14700
H2204       H  0.50383186  0.51217734  0.75857547     0.00400
H2205       H  0.49800742  0.96625270  0.71862162     0.15000
H2206       H  0.55160059  0.92376919  0.74689918     0.14800
O2207       O  0.51414536  0.93593243  0.38804518    -0.71700
O2208       O  0.51939849  0.49882473  0.41745565    -0.71900
O2209       O  0.51957141  0.93487346  0.41596964    -0.71800
O2210       O  0.51296250  0.49923561  0.38958339    -0.71800
O2211       O  0.96369445  0.50030228  0.39198616    -0.71700
O2212       O  0.97036834  0.93497601  0.41764277    -0.71800
O2213       O  0.97013429  0.49985447  0.41985206    -0.71700
O2214       O  0.96492054  0.93680927  0.38979757    -0.71900
V2215       V  0.51585291  0.96621831  0.40220590     1.35200
V2216       V  0.96856621  0.96666834  0.40415408     1.35200
C2217       C  0.48855906  0.92571303  0.38420363     0.77500
C2218       C  0.49593815  0.50974105  0.42338485     0.77600
C2219       C  0.49572089  0.92404297  0.42150628     0.77500
C2220       C  0.48732758  0.51041645  0.38608000     0.77400
C2221       C  0.48177480  0.68843770  0.30586368     0.02400
C2222       C  0.47837595  0.68795120  0.32057743     0.02300
C2223       C  0.47748420  0.71561127  0.32799618    -0.18200
C2224       C  0.48093981  0.74376749  0.32124904     0.02400
C2225       C  0.48436477  0.74455678  0.30660570     0.02300
C2226       C  0.48448834  0.71689139  0.29910626    -0.18200
H2227       H  0.48646409  0.71759563  0.28784038     0.04400
H2228       H  0.47541807  0.71515520  0.33927120     0.04400
C2229       C  0.50410828  0.93929518  0.25105765     0.86600
C2230       C  0.53346087  0.94449903  0.24265075    -0.53700
C2231       C  0.53491820  0.97154579  0.23542258     0.09500
C2232       C  0.00040119  0.49025708  0.23569420     0.20500
C2233       C  0.00159633  0.96839747  0.26033891    -0.54400
C2234       C  0.49820549  0.49314708  0.25162092     0.09600
C2235       C  0.97883661  0.94257496  0.24047253    -0.53900
C2236       C  0.97877442  0.96943607  0.23316730     0.10200
H2237       H  0.55165371  0.92804560  0.24247910     0.14700
H2238       H  0.00059668  0.51273842  0.23041095     0.00400
H2239       H  0.99929684  0.96757097  0.27161389     0.15000
H2240       H  0.96105177  0.92556359  0.23935543     0.14800
C2241       C  0.54273213  0.83487392  0.26484353    -0.17700
C2242       C  0.54004713  0.80810270  0.27268122    -0.19900
C2243       C  0.51575663  0.80461228  0.28205215     0.20700
C2244       C  0.49422690  0.82854807  0.28371276    -0.02800
C2245       C  0.49699823  0.85563508  0.27580384    -0.05900
C2246       C  0.52122664  0.85867889  0.26627276     0.21000
C2247       C  0.97582522  0.87974131  0.27752735     0.19200
C2248       C  0.95170852  0.87638385  0.28704236    -0.17400
C2249       C  0.94894458  0.84956981  0.29491155    -0.19600
C2250       C  0.97020766  0.82559926  0.29338437     0.20700
C2251       C  0.96693278  0.79810399  0.30077965    -0.32600
C2252       C  0.48783240  0.77381644  0.29888466     0.01400
C2253       C  0.51243626  0.77747278  0.28965515    -0.23900
C2254       C  0.52350497  0.88525303  0.25819031    -0.28500
C2255       C  0.50211657  0.90952377  0.25954746     0.07000
C2256       C  0.97826474  0.90616341  0.26926100    -0.27200
H2257       H  0.56158057  0.83688570  0.25759143     0.11800
H2258       H  0.55682317  0.78999969  0.27131285     0.12900
H2259       H  0.93480024  0.89439519  0.28830714     0.12000
H2260       H  0.92995663  0.84743730  0.30207785     0.11200
H2261       H  0.94753586  0.79515085  0.30764950     0.16600
H2262       H  0.52897394  0.75908554  0.28840039     0.12500
H2263       H  0.54171691  0.88589261  0.25067761     0.15400
H2264       H  0.96113414  0.92407627  0.27021964     0.15100
C2265       C  0.94652191  0.55719207  0.28711989    -0.17700
C2266       C  0.94373262  0.58472332  0.29447699    -0.19900
C2267       C  0.96369082  0.60897460  0.29179253     0.20700
C2268       C  0.48681078  0.60542852  0.28158930    -0.02800
C2269       C  0.48923809  0.57790103  0.27394059    -0.05900
C2270       C  0.96906876  0.55358752  0.27683375     0.21000
C2271       C  0.51161778  0.57475840  0.26341101     0.19200
C2272       C  0.53142624  0.59909815  0.26069602    -0.17400
C2273       C  0.52931752  0.62619871  0.26842419    -0.19600
C2274       C  0.50716598  0.62954804  0.27890738     0.20700
C2275       C  0.50527193  0.65644285  0.28685952    -0.32600
C2276       C  0.48294812  0.65988114  0.29732401     0.01400
C2277       C  0.96149046  0.63642335  0.29933846    -0.23900
C2278       C  0.97222767  0.52598038  0.26951091    -0.28500
C2279       C  0.49481747  0.52263875  0.25906953     0.07000
C2280       C  0.51398772  0.54723900  0.25590444    -0.27200
H2281       H  0.93105113  0.53869197  0.28948692     0.11800
H2282       H  0.92617924  0.58692422  0.30238501     0.12900
H2283       H  0.54874698  0.59707500  0.25267387     0.12000
H2284       H  0.54507126  0.64454732  0.26621358     0.11200
H2285       H  0.52152353  0.67458203  0.28504945     0.16600
H2286       H  0.94348618  0.63926001  0.30698627     0.12500
H2287       H  0.95708498  0.50714458  0.27180989     0.15400
H2288       H  0.53125141  0.54462568  0.24787633     0.15100
C2289       C  0.53781409  0.85769222  0.34940888    -0.17700
C2290       C  0.53683779  0.83208603  0.34064173    -0.19900
C2291       C  0.50990513  0.81511346  0.33933418     0.20700
C2292       C  0.98380811  0.82398150  0.34702397    -0.02800
C2293       C  0.98471777  0.85007937  0.35569117    -0.05900
C2294       C  0.51181225  0.86688804  0.35694239     0.21000
C2295       C  0.95841968  0.85917732  0.36317940     0.19200
C2296       C  0.93149096  0.84221457  0.36191704    -0.17400
C2297       C  0.93067110  0.81620174  0.35344577    -0.19600
C2298       C  0.95669809  0.80684278  0.34601675     0.20700
C2299       C  0.95611687  0.78056391  0.33765876    -0.32600
C2300       C  0.48194279  0.77178710  0.32988781     0.01400
C2301       C  0.50884559  0.78898894  0.33082108    -0.23900
C2302       C  0.51279780  0.89200629  0.36606693    -0.28500
C2303       C  0.48673743  0.90089373  0.37371762     0.07000
C2304       C  0.95963784  0.88469274  0.37202391    -0.27200
H2305       H  0.55897735  0.87020562  0.35036181     0.11800
H2306       H  0.55724069  0.82538446  0.33498560     0.12900
H2307       H  0.91112334  0.84888890  0.36760437     0.12000
H2308       H  0.90968121  0.80332848  0.35274090     0.11200
H2309       H  0.93541913  0.76720300  0.33690025     0.16600
H2310       H  0.52895284  0.78172583  0.32506922     0.12500
H2311       H  0.53397779  0.90437431  0.36735552     0.15400
H2312       H  0.93952988  0.89129307  0.37792946     0.15100
C2313       C  0.92794769  0.61919757  0.35417758    -0.17700
C2314       C  0.92934319  0.59446939  0.36341941    -0.19900
C2315       C  0.95600147  0.57655968  0.36447538     0.20700
C2316       C  0.48150939  0.58346811  0.35609147    -0.02800
C2317       C  0.48004022  0.60824834  0.34665722    -0.05900
C2318       C  0.95310366  0.62631438  0.34575281     0.21000
C2319       C  0.50538022  0.61493118  0.33810805     0.19200
C2320       C  0.53178873  0.59664166  0.33897907    -0.17400
C2321       C  0.53335022  0.57229406  0.34842564    -0.19600
C2322       C  0.50844057  0.56565007  0.35709420     0.20700
C2323       C  0.51012801  0.54175033  0.36685261    -0.32600
C2324       C  0.48509734  0.53511189  0.37551405     0.01400
C2325       C  0.95795515  0.55238798  0.37408093    -0.23900
C2326       C  0.95239184  0.65186692  0.33690880    -0.28500
C2327       C  0.47815226  0.65925133  0.32879154     0.07000
C2328       C  0.50415797  0.64025776  0.32913037    -0.27200
H2329       H  0.90727936  0.63295561  0.35372230     0.11800
H2330       H  0.90969317  0.58961152  0.36988971     0.12900
H2331       H  0.55142625  0.60144444  0.33249194     0.12000
H2332       H  0.55415691  0.55877870  0.34902251     0.11200
H2333       H  0.53095712  0.52831235  0.36770791     0.16600
H2334       H  0.93856195  0.54746386  0.38071053     0.12500
H2335       H  0.93231088  0.66652691  0.33660058     0.15400
H2336       H  0.52377448  0.64589349  0.32275986     0.15100
C2337       C  0.94607561  0.83257203  0.46500234    -0.17700
C2338       C  0.94533339  0.85721045  0.45571179    -0.19900
C2339       C  0.97182744  0.86595963  0.44856292     0.20700
C2340       C  0.99943554  0.84989640  0.45088200    -0.02800
C2341       C  0.00012587  0.82480625  0.46017198    -0.05900
C2342       C  0.97327463  0.81611422  0.46723920     0.21000
C2343       C  0.52741691  0.80836761  0.46248966     0.19200
C2344       C  0.55399693  0.81746667  0.45549386    -0.17400
C2345       C  0.55335844  0.84253742  0.44640749    -0.19600
C2346       C  0.52607957  0.85885818  0.44407128     0.20700
C2347       C  0.52498965  0.88340842  0.43460308    -0.32600
C2348       C  0.49736173  0.89911914  0.43200982     0.01400
C2349       C  0.97106617  0.89027346  0.43902972    -0.23900
C2350       C  0.97394033  0.79077342  0.47620425    -0.28500
C2351       C  0.00091048  0.77362101  0.47798991     0.07000
C2352       C  0.52756421  0.78259504  0.47125300    -0.27200
H2353       H  0.92526901  0.82617742  0.47033112     0.11800
H2354       H  0.92396173  0.86934376  0.45406294     0.12900
H2355       H  0.57525647  0.80503036  0.45696379     0.12000
H2356       H  0.57415079  0.84893181  0.44106831     0.11200
H2357       H  0.54550665  0.88987591  0.42905401     0.16600
H2358       H  0.94970130  0.90231686  0.43719746     0.12500
H2359       H  0.95327149  0.78376532  0.48150084     0.15400
H2360       H  0.54834970  0.76929003  0.47262162     0.15100
C2361       C  0.95148701  0.59682990  0.47025719    -0.17700
C2362       C  0.95039491  0.57190880  0.46114832    -0.19900
C2363       C  0.97531806  0.56504284  0.45247486     0.20700
C2364       C  0.00194490  0.58296528  0.45323149    -0.02800
C2365       C  0.00300380  0.60821116  0.46238755    -0.05900
C2366       C  0.97748308  0.61531395  0.47080412     0.21000
C2367       C  0.52890138  0.62672538  0.46278197     0.19200
C2368       C  0.55418204  0.61932599  0.45440367    -0.17400
C2369       C  0.55329051  0.59407729  0.44542286    -0.19600
C2370       C  0.52705755  0.57587907  0.44463008     0.20700
C2371       C  0.52538911  0.55137547  0.43518642    -0.32600
C2372       C  0.49853160  0.53405286  0.43404814     0.01400
C2373       C  0.97379406  0.54096681  0.44285619    -0.23900
C2374       C  0.97798693  0.64133173  0.47928782    -0.28500
C2375       C  0.00362116  0.66037766  0.47950628     0.07000
C2376       C  0.52895315  0.65284011  0.47131868    -0.27200
H2377       H  0.93178582  0.60196002  0.47670890     0.11800
H2378       H  0.92986966  0.55825503  0.46074317     0.12900
H2379       H  0.57449441  0.63331192  0.45465472     0.12000
H2380       H  0.57295168  0.58907182  0.43892903     0.11200
H2381       H  0.54464339  0.54638367  0.42843142     0.16600
H2382       H  0.95313783  0.52753982  0.44214558     0.12500
H2383       H  0.95791709  0.64752295  0.48530278     0.15400
H2384       H  0.54868584  0.66766397  0.47150113     0.15100
C2385       C  0.54721435  0.83345979  0.52125991    -0.17700
C2386       C  0.54811184  0.85814497  0.53051784    -0.19900
C2387       C  0.52179978  0.86714314  0.53784138     0.20700
C2388       C  0.99370322  0.85155903  0.53553578    -0.02800
C2389       C  0.99286656  0.82652870  0.52625466    -0.05900
C2390       C  0.52005445  0.81723636  0.51926040     0.21000
C2391       C  0.96555624  0.80997370  0.52447499     0.19200
C2392       C  0.93914353  0.81916882  0.53168130    -0.17400
C2393       C  0.93988404  0.84424182  0.54075696    -0.19600
C2394       C  0.96710533  0.86038481  0.54285213     0.20700
C2395       C  0.96833385  0.88487993  0.55229029    -0.32600
C2396       C  0.99592310  0.90036905  0.55467040     0.01400
C2397       C  0.52271747  0.89146129  0.54736463    -0.23900
C2398       C  0.51933262  0.79172373  0.51044540    -0.28500
C2399       C  0.99212537  0.77501776  0.50877391     0.07000
C2400       C  0.96543078  0.78409334  0.51580369    -0.27200
H2401       H  0.56788163  0.82679933  0.51579640     0.11800
H2402       H  0.56945218  0.87009579  0.53201336     0.12900
H2403       H  0.91798169  0.80679187  0.53039941     0.12000
H2404       H  0.91925275  0.85075933  0.54628302     0.11200
H2405       H  0.94794692  0.89145817  0.55799886     0.16600
H2406       H  0.54401840  0.90336391  0.54909267     0.12500
H2407       H  0.53992468  0.78433627  0.50509094     0.15400
H2408       H  0.94484442  0.77068747  0.51467843     0.15100
C2409       C  0.94063322  0.60902324  0.52742989    -0.17700
C2410       C  0.94117017  0.58308935  0.53599658    -0.19900
C2411       C  0.96906069  0.57027607  0.54041328     0.20700
C2412       C  0.99669621  0.58331720  0.53586081    -0.02800
C2413       C  0.99616413  0.60932119  0.52710097    -0.05900
C2414       C  0.96797700  0.62250490  0.52303726     0.21000
C2415       C  0.52382448  0.62256243  0.52280517     0.19200
C2416       C  0.55170942  0.60998133  0.52730885    -0.17400
C2417       C  0.55224651  0.58445063  0.53609528    -0.19600
C2418       C  0.52490799  0.57093264  0.54047829     0.20700
C2419       C  0.52528368  0.54588246  0.54963863    -0.32600
C2420       C  0.99781753  0.53288635  0.55427428     0.01400
C2421       C  0.96979618  0.54507553  0.54951939    -0.23900
C2422       C  0.96769540  0.64907824  0.51478931    -0.28500
C2423       C  0.99522025  0.66204372  0.51026847     0.07000
C2424       C  0.52310192  0.64864537  0.51429008    -0.27200
H2425       H  0.91880088  0.61868161  0.52432597     0.11800
H2426       H  0.91972851  0.57330244  0.53933364     0.12900
H2427       H  0.57313107  0.62009532  0.52415289     0.12000
H2428       H  0.57408217  0.57540847  0.53955381     0.11200
H2429       H  0.54699386  0.53700574  0.55335632     0.16600
H2430       H  0.94851841  0.53540479  0.55314932     0.12500
H2431       H  0.94617278  0.65961758  0.51179845     0.15400
H2432       H  0.54425871  0.65918756  0.51102456     0.15100
C2433       C  0.55943129  0.84185364  0.62614639    -0.17700
C2434       C  0.56005243  0.81625581  0.63491098    -0.19900
C2435       C  0.53341884  0.80667380  0.64171828     0.20700
C2436       C  0.00578401  0.82303138  0.63971061    -0.02800
C2437       C  0.50521443  0.84882733  0.63076586    -0.05900
C2438       C  0.53212468  0.85823354  0.62396444     0.21000
C2439       C  0.97735704  0.86452370  0.62839109     0.19200
C2440       C  0.95064638  0.85471622  0.63506488    -0.17400
C2441       C  0.95135568  0.82944119  0.64400287    -0.19600
C2442       C  0.97875635  0.81341887  0.64637885     0.20700
C2443       C  0.97954300  0.78776777  0.65517101    -0.32600
C2444       C  0.00687862  0.77142215  0.65722102     0.01400
C2445       C  0.53370098  0.78076240  0.65037452    -0.23900
C2446       C  0.53117246  0.88359288  0.61497392    -0.28500
C2447       C  0.00346208  0.89939640  0.61253791     0.07000
C2448       C  0.97670705  0.88965910  0.61928477    -0.27200
H2449       H  0.58029489  0.84871874  0.62099172     0.11800
H2450       H  0.58137237  0.80389725  0.63633806     0.12900
H2451       H  0.92914970  0.86657313  0.63334735     0.12000
H2452       H  0.93040330  0.82231356  0.64900297     0.11200
H2453       H  0.95884453  0.78012132  0.66024898     0.16600
H2454       H  0.55462759  0.76771427  0.65181317     0.12500
H2455       H  0.55182531  0.89056269  0.60966306     0.15400
H2456       H  0.95527264  0.90151220  0.61737446     0.15100
C2457       C  0.55198327  0.56956040  0.63784557    -0.17700
C2458       C  0.55229680  0.59451109  0.64700338    -0.19900
C2459       C  0.52622741  0.61301901  0.64867134     0.20700
C2460       C  0.99923612  0.60568228  0.64143945    -0.02800
C2461       C  0.99881084  0.58022512  0.63231123    -0.05900
C2462       C  0.52550194  0.56245719  0.63028030     0.21000
C2463       C  0.97190074  0.57299568  0.62494060     0.19200
C2464       C  0.94551482  0.59095586  0.62695229    -0.17400
C2465       C  0.94605405  0.61641880  0.63583715    -0.19600
C2466       C  0.97291278  0.62424553  0.64297360     0.20700
C2467       C  0.97420017  0.65066989  0.65133100    -0.32600
C2468       C  0.00124471  0.65832387  0.65841293     0.01400
C2469       C  0.52692747  0.63908705  0.65724583    -0.23900
C2470       C  0.52545153  0.53821738  0.62063137    -0.28500
C2471       C  0.99895307  0.53124193  0.61302848     0.07000
C2472       C  0.97206132  0.54839949  0.61546444    -0.27200
H2473       H  0.57260916  0.55600164  0.63656075     0.11800
H2474       H  0.57315343  0.59968369  0.65258846     0.12900
H2475       H  0.92459299  0.58565792  0.62144089     0.12000
H2476       H  0.92555434  0.63023515  0.63698214     0.11200
H2477       H  0.95432579  0.66547938  0.65226352     0.16600
H2478       H  0.54771155  0.64499741  0.66274750     0.12500
H2479       H  0.54614615  0.52492867  0.61899317     0.15400
H2480       H  0.95145500  0.54319366  0.60968118     0.15100
C2481       C  0.95549847  0.83983454  0.72192062    -0.17700
C2482       C  0.95627799  0.81318793  0.71385381    -0.19900
C2483       C  0.98120127  0.80692192  0.70510370     0.20700
C2484       C  0.00549657  0.82788194  0.70435268    -0.02800
C2485       C  0.00476064  0.85479647  0.71258405    -0.05900
C2486       C  0.97972349  0.86067137  0.72143478     0.21000
C2487       C  0.52857014  0.87596256  0.71175237     0.19200
C2488       C  0.55309614  0.87014228  0.70265007    -0.17400
C2489       C  0.55390624  0.84346599  0.69449552    -0.19600
C2490       C  0.53019405  0.82206412  0.69527244     0.20700
C2491       C  0.53089410  0.79495251  0.68728629    -0.32600
C2492       C  0.00716333  0.77358867  0.68837900     0.01400
C2493       C  0.98228604  0.77995678  0.69717920    -0.23900
C2494       C  0.97915300  0.88717852  0.72971883    -0.28500
C2495       C  0.00356212  0.90818486  0.72952050     0.07000
C2496       C  0.52766124  0.90249914  0.72011559    -0.27200
H2497       H  0.93601665  0.84402631  0.72862465     0.11800
H2498       H  0.93738565  0.79739065  0.71450924     0.12900
H2499       H  0.57175241  0.88618083  0.70187403     0.12000
H2500       H  0.57315806  0.83952540  0.68761270     0.11200
H2501       H  0.55006605  0.79023486  0.68044893     0.16600
H2502       H  0.96370680  0.76376370  0.69783239     0.12500
H2503       H  0.95922957  0.89106938  0.73602795     0.15400
H2504       H  0.54613527  0.91879181  0.71944969     0.15100
C2505       C  0.95496753  0.59069748  0.69399766    -0.17700
C2506       C  0.95430785  0.56364762  0.70178477    -0.19900
C2507       C  0.97710730  0.55734858  0.71170437     0.20700
C2508       C  0.50067296  0.57861102  0.71378807    -0.02800
C2509       C  0.50156549  0.60575036  0.70578843    -0.05900
C2510       C  0.97857307  0.61182798  0.69590644     0.21000
C2511       C  0.52541173  0.62684134  0.70779594     0.19200
C2512       C  0.54799926  0.62070404  0.71784161    -0.17400
C2513       C  0.54700166  0.59392427  0.72583100    -0.19600
C2514       C  0.52346649  0.57270915  0.72388596     0.20700
C2515       C  0.52255052  0.54552610  0.73170557    -0.32600
C2516       C  0.99964327  0.52388773  0.72941135     0.01400
C2517       C  0.97684503  0.53006066  0.71942588    -0.23900
C2518       C  0.97957054  0.63883740  0.68801692    -0.28500
C2519       C  0.00365386  0.65963386  0.68969752     0.07000
C2520       C  0.52631084  0.65358593  0.69968439    -0.27200
H2521       H  0.93710868  0.59499059  0.68639904     0.11800
H2522       H  0.93596273  0.54760848  0.70002854     0.12900
H2523       H  0.56648196  0.63662667  0.71951787     0.12000
H2524       H  0.56474623  0.58973277  0.73349596     0.11200
H2525       H  0.54036275  0.54067315  0.73921646     0.16600
H2526       H  0.95892184  0.51352122  0.71767213     0.12500
H2527       H  0.96151812  0.64378256  0.68059822     0.15400
H2528       H  0.54477794  0.66966840  0.70110719     0.15100
C2529       C  0.91015818  0.93217613  0.79433308    -0.17700
C2530       C  0.88213041  0.93449549  0.80128630    -0.19900
C2531       C  0.86277715  0.95975936  0.79905414     0.20700
C2532       C  0.87211907  0.98333798  0.79000127    -0.02800
C2533       C  0.90063544  0.98114545  0.78307718    -0.05900
C2534       C  0.91945321  0.95517900  0.78508882     0.21000
C2535       C  0.90792826  0.51340552  0.77408607     0.19200
C2536       C  0.89168403  0.54116109  0.77300479    -0.17400
C2537       C  0.86348979  0.54516674  0.77979118    -0.19600
C2538       C  0.85085217  0.52147743  0.78777937     0.20700
C2539       C  0.82200707  0.52479854  0.79424198    -0.32600
C2540       C  0.80965128  0.50076949  0.80216446     0.01400
C2541       C  0.83415682  0.96169313  0.80561388    -0.23900
C2542       C  0.94657911  0.95203066  0.77738410    -0.28500
C2543       C  0.95530191  0.97444088  0.76765799     0.07000
C2544       C  0.93735709  0.00109397  0.76627240    -0.27200
H2545       H  0.92437583  0.91212727  0.79602764     0.11800
H2546       H  0.87537907  0.91627606  0.80825935     0.12900
H2547       H  0.90052812  0.55962763  0.76670029     0.12000
H2548       H  0.85133799  0.56668638  0.77861608     0.11200
H2549       H  0.80928534  0.54604193  0.79322842     0.16600
H2550       H  0.82696356  0.94357787  0.81256260     0.12500
H2551       H  0.96031542  0.93142143  0.77846878     0.15400
H2552       H  0.94364824  0.52569342  0.75949198     0.15100
C2553       C  0.60192920  0.93564457  0.79354014    -0.17700
C2554       C  0.62927510  0.93791281  0.80103786    -0.19900
C2555       C  0.65068418  0.96048323  0.79771122     0.20700
C2556       C  0.64434943  0.98115073  0.78676681    -0.02800
C2557       C  0.61658624  0.97895253  0.77921413    -0.05900
C2558       C  0.59540271  0.95594953  0.78258636     0.21000
C2559       C  0.59651096  0.50965950  0.77304700     0.19200
C2560       C  0.60944927  0.53891950  0.77383677    -0.17400
C2561       C  0.63705762  0.54353386  0.78095798    -0.19600
C2562       C  0.65226282  0.51901453  0.78748669     0.20700
C2563       C  0.68018153  0.52331720  0.79453827    -0.32600
C2564       C  0.69494975  0.49862360  0.80117295     0.01400
C2565       C  0.67828966  0.96266063  0.80513508    -0.23900
C2566       C  0.56836821  0.95322212  0.77477820    -0.28500
C2567       C  0.56194682  0.97330123  0.76369503     0.07000
C2568       C  0.56925053  0.50458058  0.76554408    -0.27200
H2569       H  0.58592055  0.91786216  0.79627091     0.11800
H2570       H  0.63373394  0.92189759  0.80942609     0.12900
H2571       H  0.59835050  0.55822982  0.76882686     0.12000
H2572       H  0.64658778  0.56630811  0.78131161     0.11200
H2573       H  0.69026020  0.54585101  0.79504095     0.16600
H2574       H  0.68318657  0.94650306  0.81342280     0.12500
H2575       H  0.55246781  0.93505144  0.77712647     0.15400
H2576       H  0.55810164  0.52353466  0.76034858     0.15100
C2577       C  0.88261659  0.45701733  0.86257157    -0.17700
C2578       C  0.85732503  0.45532242  0.85366503    -0.19900
C2579       C  0.84514766  0.48186420  0.84752194     0.20700
C2580       C  0.85882726  0.51038828  0.85024025    -0.02800
C2581       C  0.88425388  0.51210997  0.85929684    -0.05900
C2582       C  0.89613636  0.48529986  0.86553037     0.21000
C2583       C  0.89751693  0.54069208  0.86224134     0.19200
C2584       C  0.88550134  0.56721996  0.85600194    -0.17400
C2585       C  0.86042740  0.56550596  0.84697601    -0.19600
C2586       C  0.84684045  0.53725024  0.84407243     0.20700
C2587       C  0.82121742  0.53540732  0.83529418    -0.32600
C2588       C  0.80725525  0.50715365  0.83279342     0.01400
C2589       C  0.81927765  0.48047908  0.83888695    -0.23900
C2590       C  0.92105939  0.48728135  0.87473712    -0.28500
C2591       C  0.93419080  0.51576058  0.87787320     0.07000
C2592       C  0.92233110  0.54232127  0.87148831    -0.27200
H2593       H  0.89145119  0.43620335  0.86724526     0.11800
H2594       H  0.84526846  0.92475574  0.85993966     0.12900
H2595       H  0.89542048  0.58935014  0.85815612     0.12000
H2596       H  0.85150188  0.58633636  0.84235139     0.11200
H2597       H  0.81170177  0.55594413  0.83061704     0.16600
H2598       H  0.80829113  0.45874759  0.83695637     0.12500
H2599       H  0.92992595  0.46669572  0.87961586     0.15400
H2600       H  0.93220773  0.56439599  0.87382238     0.15100
C2601       C  0.63004893  0.45945284  0.86796983    -0.17700
C2602       C  0.65529242  0.45765093  0.85903121    -0.19900
C2603       C  0.66178500  0.48165569  0.84981244     0.20700
C2604       C  0.64237774  0.50758462  0.84947228    -0.02800
C2605       C  0.61708422  0.50956717  0.85863124    -0.05900
C2606       C  0.61094662  0.48540202  0.86794119     0.21000
C2607       C  0.59828156  0.53593612  0.85863170     0.19200
C2608       C  0.60449302  0.55972202  0.84924566    -0.17400
C2609       C  0.62933374  0.55762836  0.84007964    -0.19600
C2610       C  0.64858628  0.53180540  0.84018755     0.20700
C2611       C  0.67432258  0.53008951  0.83143364    -0.32600
C2612       C  0.69418694  0.50471141  0.83201664     0.01400
C2613       C  0.68766514  0.48049233  0.84114873    -0.23900
C2614       C  0.58615671  0.48781141  0.87721340    -0.28500
C2615       C  0.56771014  0.51434660  0.87753593     0.07000
C2616       C  0.57388976  0.53824501  0.86813595    -0.27200
H2617       H  0.62568846  0.44067875  0.87504119     0.11800
H2618       H  0.66989196  0.43754656  0.85940669     0.12900
H2619       H  0.59024453  0.58008692  0.84905944     0.12000
H2620       H  0.63372873  0.57642253  0.83302439     0.11200
H2621       H  0.67954600  0.54891556  0.82450812     0.16600
H2622       H  0.70304753  0.46096487  0.84161634     0.12500
H2623       H  0.58172069  0.46932891  0.88444246     0.15400
H2624       H  0.55975664  0.55870865  0.86824325     0.15100
C2625       C  0.90013359  0.55053115  0.21525098    -0.17700
C2626       C  0.87259030  0.55887420  0.20874037    -0.19900
C2627       C  0.85397905  0.53662973  0.20254317     0.20700
C2628       C  0.86914809  0.99875574  0.20336137    -0.02800
C2629       C  0.89724297  0.99212841  0.21008005    -0.05900
C2630       C  0.90983679  0.51982730  0.21552756     0.21000
C2631       C  0.91164428  0.96348152  0.20804905     0.19200
C2632       C  0.89810260  0.94192764  0.19915642    -0.17400
C2633       C  0.87050811  0.94863284  0.19236469    -0.19600
C2634       C  0.85579364  0.97691875  0.19442634     0.20700
C2635       C  0.82800586  0.98377325  0.18771871    -0.32600
C2636       C  0.81325559  0.01204529  0.18991593     0.01400
C2637       C  0.82617664  0.54466780  0.19603428    -0.23900
C2638       C  0.93706886  0.51106904  0.22236079    -0.28500
C2639       C  0.95235806  0.97825690  0.22417120     0.07000
C2640       C  0.93897790  0.95668428  0.21515855    -0.27200
H2641       H  0.91384308  0.56812430  0.22009384     0.11800
H2642       H  0.86572767  0.58272939  0.20865033     0.12900
H2643       H  0.90882625  0.91981650  0.19747687     0.12000
H2644       H  0.86058113  0.93160443  0.18554793     0.11200
H2645       H  0.81776647  0.96717417  0.18076664     0.16600
H2646       H  0.81899852  0.56841940  0.19551951     0.12500
H2647       H  0.95021317  0.52820605  0.22782301     0.15400
H2648       H  0.94964013  0.93440057  0.21386998     0.15100
C2649       C  0.66981322  0.95828558  0.21551942    -0.17700
C2650       C  0.64345636  0.95199748  0.22311299    -0.19900
C2651       C  0.61719831  0.97032034  0.22157762     0.20700
C2652       C  0.61735762  0.99515949  0.21230164    -0.02800
C2653       C  0.64439434  0.00206152  0.20486630    -0.05900
C2654       C  0.67061663  0.98339588  0.20647970     0.21000
C2655       C  0.63967142  0.53238006  0.19600763     0.19200
C2656       C  0.61272529  0.54973844  0.19442971    -0.17400
C2657       C  0.58564872  0.54100179  0.20113758    -0.19600
C2658       C  0.59072723  0.01319488  0.21060014     0.20700
C2659       C  0.56376382  0.00563138  0.21800229    -0.32600
C2660       C  0.56338220  0.98070425  0.22743084     0.01400
C2661       C  0.59095925  0.96402694  0.22929386    -0.23900
C2662       C  0.69731277  0.99005214  0.19909503    -0.28500
C2663       C  0.69889293  0.01565487  0.19029471     0.07000
C2664       C  0.66697468  0.54073270  0.18926828    -0.27200
H2665       H  0.68971946  0.94369263  0.21685062     0.11800
H2666       H  0.64356967  0.93263226  0.23015648     0.12900
H2667       H  0.61252101  0.56996838  0.18791498     0.12000
H2668       H  0.56518579  0.55470514  0.19964481     0.11200
H2669       H  0.53722761  0.51889357  0.21478006     0.16600
H2670       H  0.59296809  0.94602817  0.23690211     0.12500
H2671       H  0.71698908  0.97501673  0.20013835     0.15400
H2672       H  0.66747845  0.56143416  0.18308389     0.15100
C2673       C  0.86916000  0.48397298  0.97047493    -0.17700
C2674       C  0.89437654  0.48246947  0.96153719    -0.19900
C2675       C  0.90236763  0.50777082  0.95335271     0.20700
C2676       C  0.88502938  0.53502641  0.95432775    -0.02800
C2677       C  0.85935564  0.53644591  0.96324729    -0.05900
C2678       C  0.85136503  0.51073285  0.97131596     0.21000
C2679       C  0.84139207  0.56337398  0.96389635     0.19200
C2680       C  0.84974008  0.58885486  0.95590801    -0.17400
C2681       C  0.87537067  0.58755118  0.94718549    -0.19600
C2682       C  0.89300027  0.56066707  0.94621195     0.20700
C2683       C  0.91804949  0.55876198  0.93706628    -0.32600
C2684       C  0.93490165  0.53135460  0.93572870     0.01400
C2685       C  0.92704931  0.50608352  0.94403726    -0.23900
C2686       C  0.82543012  0.51204570  0.97988864    -0.28500
C2687       C  0.80709942  0.53853519  0.98034000     0.07000
C2688       C  0.81519432  0.56414932  0.97235876    -0.27200
H2689       H  0.86334782  0.46405342  0.97660734     0.11800
H2690       H  0.90750417  0.46140188  0.96094469     0.12900
H2691       H  0.83630125  0.60974612  0.95632522     0.12000
H2692       H  0.88116866  0.60746951  0.94105114     0.11200
H2693       H  0.92385704  0.57832936  0.93069298     0.16600
H2694       H  0.93998581  0.48493054  0.94315713     0.12500
H2695       H  0.81899642  0.49222922  0.98597505     0.15400
H2696       H  0.80102301  0.58457660  0.97274671     0.15100
C2697       C  0.63202680  0.58337324  0.94370908    -0.17700
C2698       C  0.65710098  0.58504794  0.95272793    -0.19900
C2699       C  0.66229073  0.56216169  0.96272085     0.20700
C2700       C  0.64176857  0.53753489  0.96376807    -0.02800
C2701       C  0.61657789  0.53571539  0.95458557    -0.05900
C2702       C  0.61177716  0.55871169  0.94448417     0.21000
C2703       C  0.59658382  0.51059715  0.95533146     0.19200
C2704       C  0.60148928  0.48798816  0.96549393    -0.17400
C2705       C  0.62636067  0.48986895  0.97463682    -0.19600
C2706       C  0.64682495  0.51433872  0.97374980     0.20700
C2707       C  0.67271407  0.51555864  0.98238024    -0.32600
C2708       C  0.69361608  0.53969656  0.98119178     0.01400
C2709       C  0.68802279  0.56309041  0.97144698    -0.23900
C2710       C  0.58714838  0.55638553  0.93517426    -0.28500
C2711       C  0.56759153  0.53103397  0.93560184     0.07000
C2712       C  0.57236203  0.50829895  0.94576645    -0.27200
H2713       H  0.62868059  0.60120177  0.93600515     0.11800
H2714       H  0.67262376  0.60410845  0.95179052     0.12900
H2715       H  0.59572323  0.97104127  0.96556851     0.12000
H2716       H  0.63963411  0.97560207  0.98129673     0.11200
H2717       H  0.67725292  0.49709869  0.98964074     0.16600
H2718       H  0.70409366  0.58171048  0.97049738     0.12500
H2719       H  0.58370697  0.57391431  0.92732633     0.15400
H2720       H  0.55725025  0.48880548  0.94621243     0.15100
C2721       C  0.87348921  0.08004298  0.14881357    -0.17700
C2722       C  0.89830423  0.08116124  0.13961124    -0.19900
C2723       C  0.90633822  0.05552827  0.13153073     0.20700
C2724       C  0.88927909  0.02841676  0.13282729    -0.02800
C2725       C  0.85785055  0.54049699  0.14236476    -0.05900
C2726       C  0.85611715  0.05333684  0.15004362     0.21000
C2727       C  0.84865524  0.51292299  0.14867526     0.19200
C2728       C  0.86473018  0.48576093  0.14581241    -0.17400
C2729       C  0.88963584  0.48582770  0.13668947    -0.19600
C2730       C  0.89887351  0.51305627  0.13026961     0.20700
C2731       C  0.92353635  0.51317857  0.12094108    -0.32600
C2732       C  0.93898215  0.03069934  0.11411796     0.01400
C2733       C  0.93094350  0.05657259  0.12211017    -0.23900
C2734       C  0.83060942  0.05227513  0.15893179    -0.28500
C2735       C  0.81284320  0.02574339  0.15969818     0.07000
C2736       C  0.82319813  0.51287126  0.15752317    -0.27200
H2737       H  0.86770228  0.10018980  0.15487629     0.11800
H2738       H  0.91116182  0.10214545  0.13877856     0.12900
H2739       H  0.85793921  0.46441578  0.15058085     0.12000
H2740       H  0.90158893  0.46452576  0.13459716     0.11200
H2741       H  0.93552739  0.49195360  0.11870479     0.16600
H2742       H  0.94387018  0.07747248  0.12102503     0.12500
H2743       H  0.82406505  0.07222817  0.16498474     0.15400
H2744       H  0.81537394  0.49151233  0.16191328     0.15100
C2745       C  0.63892239  0.97746980  0.14704189    -0.17700
C2746       C  0.61366263  0.97819784  0.13810166    -0.19900
C2747       C  0.60565342  0.00519132  0.13103740     0.20700
C2748       C  0.62314307  0.03180017  0.13306556    -0.02800
C2749       C  0.64306970  0.53984452  0.14235295    -0.05900
C2750       C  0.65668864  0.00367722  0.14901271     0.19200
C2751       C  0.66042573  0.56665995  0.14408262     0.19200
C2752       C  0.65173692  0.59345492  0.13703124    -0.17400
C2753       C  0.62609121  0.59371944  0.12831277    -0.19600
C2754       C  0.60876743  0.56715726  0.12644575     0.20700
C2755       C  0.58336482  0.56710975  0.11750447    -0.32600
C2756       C  0.57283959  0.03294753  0.11471433     0.01400
C2757       C  0.58072464  0.00590994  0.12183946    -0.23900
C2758       C  0.68242198  0.00295027  0.15772825    -0.28500
C2759       C  0.70041275  0.02911818  0.15943823     0.07000
C2760       C  0.68625102  0.56614078  0.15275872    -0.27200
H2761       H  0.64470229  0.95632530  0.15233873     0.11800
H2762       H  0.60045424  0.95758435  0.13666379     0.12900
H2763       H  0.66482061  0.61421794  0.13823921     0.12000
H2764       H  0.61990973  0.61467994  0.12295632     0.11200
H2765       H  0.57712824  0.58784479  0.11196966     0.16600
H2766       H  0.56758466  0.98532654  0.12014737     0.12500
H2767       H  0.68882017  0.98196043  0.16302841     0.15400
H2768       H  0.69978473  0.58660574  0.15406396     0.15100
C2769       C  0.87243345  0.58491219  0.02062218    -0.17700
C2770       C  0.89742345  0.58566135  0.02974117    -0.19900
C2771       C  0.90418229  0.56050584  0.03832774     0.20700
C2772       C  0.88586480  0.53412588  0.03752615    -0.02800
C2773       C  0.86045853  0.53349942  0.02845075    -0.05900
C2774       C  0.85362447  0.55909587  0.02001506     0.21000
C2775       C  0.84151748  0.50751829  0.02805994     0.19200
C2776       C  0.84955634  0.98621768  0.03693972    -0.17400
C2777       C  0.87519483  0.98456562  0.04562725    -0.19600
C2778       C  0.89254774  0.50856723  0.04599384     0.20700
C2779       C  0.92128238  0.00772445  0.05510734    -0.32600
C2780       C  0.93518529  0.53603592  0.05639692     0.01400
C2781       C  0.92859459  0.56139626  0.04785191    -0.23900
C2782       C  0.82767316  0.55868753  0.01140893    -0.28500
C2783       C  0.80827523  0.53323186  0.01132660     0.07000
C2784       C  0.81545158  0.50764441  0.01955842    -0.27200
H2785       H  0.86753642  0.60472442  0.01419684     0.11800
H2786       H  0.91131608  0.60603512  0.03016389     0.12900
H2787       H  0.83331577  0.96765203  0.03705318     0.12000
H2788       H  0.87823892  0.96475989  0.05228145     0.11200
H2789       H  0.92436078  0.98833136  0.06202074     0.16600
H2790       H  0.94237890  0.58180930  0.04864942     0.12500
H2791       H  0.82191884  0.57852430  0.00513041     0.15400
H2792       H  0.80045609  0.48802804  0.01944435     0.15100
C2793       C  0.63446646  0.98339148  0.04250533    -0.17700
C2794       C  0.65986598  0.98473378  0.03369491    -0.19900
C2795       C  0.66743674  0.01214364  0.02699310     0.20700
C2796       C  0.64411835  0.53482846  0.03011213    -0.02800
C2797       C  0.61870753  0.53527342  0.03918502    -0.05900
C2798       C  0.61635133  0.00950700  0.04485813     0.21000
C2799       C  0.60244126  0.56281032  0.04148582     0.19200
C2800       C  0.61147155  0.58952733  0.03456879    -0.17400
C2801       C  0.63642087  0.58901370  0.02545273    -0.19600
C2802       C  0.65292772  0.56183137  0.02317836     0.20700
C2803       C  0.67831734  0.56124880  0.01424861    -0.32600
C2804       C  0.69535027  0.53421496  0.01242274     0.01400
C2805       C  0.69331497  0.01384948  0.01843781    -0.23900
C2806       C  0.59139621  0.00853864  0.05402145    -0.28500
C2807       C  0.56856817  0.53636709  0.05763666     0.07000
C2808       C  0.57760333  0.56321064  0.05074100    -0.27200
H2809       H  0.62918997  0.96198322  0.04760981     0.11800
H2810       H  0.67369810  0.96434760  0.03217851     0.12900
H2811       H  0.59924306  0.61086010  0.03622098     0.12000
H2812       H  0.64294730  0.60995202  0.02025340     0.11200
H2813       H  0.68535559  0.58193962  0.00896624     0.16600
H2814       H  0.70787401  0.99390981  0.01702848     0.12500
H2815       H  0.58607777  0.98732895  0.05929995     0.15400
H2816       H  0.56534189  0.58446023  0.05259374     0.15100
loop_ 
_geom_bond_atom_site_label_1 
_geom_bond_atom_site_label_2 
_geom_bond_distance 
_geom_bond_site_symmetry_2 
_ccdc_geom_bond_type 
O1            V9   1.897       .  S
O1           C11   1.264       .  A
O2         V1417   1.898       .  S
O2          C716   1.265       .  A
O3            V9   1.901       .  S
O3          C717   1.265       .  A
O4         V1417   1.899       .  S
O4           C14   1.265       .  A
O5           V10   1.908       .  S
O5          C718   1.266       .  A
O6         V1418   1.902       .  S
O6           C13   1.265       .  A
O7           V10   1.900       .  S
O7           C12   1.265       .  A
O8         V1418   1.902       .  S
O8          C715   1.265       .  A
V9         O1410   1.897   1_455  S
V9         O1412   1.899   1_455  S
V9         V2122   2.086       .  T
V10        O1414   1.902       .  S
V10        O1416   1.901       .  S
V10        V2121   2.086       .  T
C11         O712   1.266       .  A
C11         C644   1.481       .  S
C12         O706   1.264       .  A
C12         C668   1.476       .  S
C13         O707   1.266       .  A
C13         C695   1.483       .  S
C14         O709   1.266       .  A
C14         C620   1.483       .  S
C15         C692   1.481       .  S
C15          C16   1.414   1_554  A
C15          C20   1.402       .  A
C16         C596   1.488       .  S
C16          C17   1.408       .  A
C17          C18   1.408       .  A
C17          H22   1.084       .  S
C18         C575   1.489       .  S
C18          C19   1.416   1_556  A
C19         C671   1.483       .  S
C19          C20   1.403       .  A
C20          H21   1.085       .  S
C23         C551   1.502       .  S
C23          C24   1.421       .  A
C23          C28   1.414       .  A
C24         C647   1.482       .  S
C24         C729   1.404       .  A
C25         C728   1.404       .  A
C25         C730   1.400       .  A
C25          H30   1.085       .  S
C26         C623   1.482       .  S
C26          C27   1.411       .  A
C26         C729   1.401       .  A
C27         C524   1.485       .  S
C27          C28   1.406       .  A
C28          H29   1.084       .  S
O31          V39   1.905       .  S
O31         C745   1.266       .  A
O32        V1447   1.908       .  S
O32         C746   1.267       .  A
O33          V39   1.906       .  S
O33         C747   1.266       .  A
O34        V1447   1.901       .  S
O34         C748   1.265       .  A
O35          V40   1.907       .  S
O35          C44   1.266       .  A
O36        V1448   1.902       .  S
O36          C43   1.265       .  A
O37          V40   1.906       .  S
O37          C42   1.266       .  A
O38        V1448   1.908       .  S
O38          C41   1.267       .  A
V39        O1440   1.908   1_455  S
V39        O1442   1.901   1_455  S
V39        V2152   2.085       .  T
V40        O1444   1.903       .  S
V40        O1446   1.908       .  S
V40        V2151   2.086   1_545  T
C41         O735   1.264       .  A
C41         C599   1.483       .  S
C42         O736   1.266   1_545  A
C42         C479   1.487       .  S
C43         O737   1.265   1_545  A
C43         C503   1.480       .  S
C44         O738   1.265       .  A
C44         C572   1.482       .  S
C45         C452   1.500       .  S
C45          C46   1.423       .  A
C45          C50   1.415       .  A
C46         C500   1.491       .  S
C46          C47   1.407       .  A
C47          C48   1.401       .  A
C47          H52   1.085       .  S
C48         C476   1.487       .  S
C48          C49   1.413       .  A
C49         C428   1.491       .  S
C49          C50   1.412       .  A
C50          H51   1.084       .  S
C53         C407   1.496       .  S
C53          C54   1.418       .  A
C53          C58   1.409       .  A
C54         C356   1.482       .  S
C54          C55   1.405       .  A
C55          C56   1.405       .  A
C55          H60   1.085       .  S
C56         C332   1.489       .  S
C56          C57   1.418       .  A
C57         C380   1.491       .  S
C57          C58   1.412       .  A
C58          H59   1.084       .  S
O61          V69   1.908       .  S
O61          C71   1.267       .  A
O62         V773   1.908       .  S
O62          C72   1.267   1_565  A
O63          V69   1.897       .  S
O63          C73   1.265       .  A
O64         V773   1.896       .  S
O64          C74   1.264   1_565  A
O65         V774   1.907       .  S
O65        C1482   1.266   1_565  A
O66          V70   1.912       .  S
O66        C1481   1.267       .  A
O67         V774   1.900       .  S
O67        C1480   1.265   1_465  A
O68          V70   1.907       .  S
O68        C1479   1.266       .  A
V69         O766   1.908       .  S
V69         O768   1.901       .  S
V69        V1478   2.084       .  T
V70         O769   1.913       .  S
V70         O771   1.904       .  S
V70        V1477   2.084   1_455  T
C71        O1476   1.266       .  A
C71         C335   1.489       .  S
C72        O1475   1.265   1_545  A
C72         C308   1.487       .  S
C73        O1474   1.267       .  A
C73         C284   1.485       .  S
C74        O1473   1.266   1_545  A
C74         C359   1.483       .  S
C75         C311   1.482       .  S
C75          C76   1.414       .  A
C75          C80   1.404       .  A
C76         C263   1.486       .  S
C76          C77   1.408       .  A
C77          C78   1.406       .  A
C77          H82   1.084       .  S
C78         C239   1.485       .  S
C78          C79   1.413       .  A
C79         C287   1.483       .  S
C79          C80   1.406       .  A
C80          H81   1.084       .  S
C83          C84   1.542       .  S
C83        C1497   1.535       .  S
C83        C1495   1.535       .  S
C83         C383   1.541       .  S
C84          H91   1.081       .  S
C84          C85   1.367       .  D
C85        C2198   1.548       .  S
C85         C431   1.496       .  S
C86        C2197   1.548   1_455  S
C86         C794   1.549       .  S
C86        C1496   1.545       .  S
C86          H92   1.111   1_565  S
C87        C1491   1.536       .  S
C87          H93   1.087       .  S
C87        C2200   1.367   1_655  D
C88        C1494   1.545       .  S
C88        C2199   1.368       .  D
C88         C404   1.490   1_565  S
C89        C1491   1.536   1_455  S
C89          H94   1.086       .  S
C89          C90   1.371       .  D
C90         C790   1.551       .  S
C90         C455   1.499       .  S
O95         V103   1.897       .  S
O95         C105   1.264   1_455  A
O96         V807   1.899       .  S
O96         C106   1.265   1_465  A
O97         V103   1.908       .  S
O97         C107   1.267   1_455  A
O98         V807   1.906       .  S
O98         C108   1.266   1_465  A
O99         V808   1.903       .  S
O99        C1516   1.265   1_565  A
O100        V104   1.901       .  S
O100       C1515   1.265       .  A
O101        V808   1.903       .  S
O101       C1514   1.265   1_565  A
O102        V104   1.905       .  S
O102       C1513   1.266       .  A
V103        O800   1.900       .  S
V103        O802   1.905       .  S
V103       V1512   2.086   1_455  T
V104        O803   1.903       .  S
V104        O805   1.900       .  S
V104       V1511   2.086       .  T
C105       O1510   1.266       .  A
C105        C191   1.481       .  S
C106       O1509   1.265   1_545  A
C106        C260   1.480       .  S
C107       O1508   1.265       .  A
C107        C236   1.486       .  S
C108       O1507   1.265   1_545  A
C108        C212   1.485       .  S
C109        C164   1.496       .  S
C109        C110   1.419       .  A
C109        C114   1.408       .  A
C110        C215   1.485       .  S
C110        C111   1.406       .  A
C111        C112   1.404       .  A
C111        H116   1.085       .  S
C112        C188   1.484       .  S
C112        C113   1.413       .  A
C113        C140   1.486       .  S
C113        C114   1.406       .  A
C114        H115   1.084       .  S
C117        C118   1.540   1_655  S
C117       C1531   1.530       .  S
C117       C1529   1.535       .  S
C117        C143   1.538       .  S
C118        H125   1.074       .  S
C118        C119   1.372       .  D
C119       C2232   1.552       .  S
C119        C548   1.513       .  S
C120       C2231   1.557       .  S
C120        C828   1.552       .  S
C120       C1530   1.542       .  S
C120        H126   1.108   1_565  S
C121       C1525   1.534       .  S
C121        H127   1.087       .  S
C121       C2234   1.363       .  D
C122       C1528   1.541       .  S
C122       C2233   1.366       .  D
C122        C167   1.486   1_465  S
C123       C1525   1.530       .  S
C123        H128   1.084       .  S
C123        C124   1.374       .  D
C124        C824   1.556       .  S
C124        C527   1.504       .  S
C129        C130   1.397       .  A
C129        C134   1.404       .  A
C129        H145   1.084       .  S
C130        C131   1.402       .  A
C130        H146   1.084       .  S
C131        C141   1.401       .  A
C131        C132   1.411   1_455  A
C132        C133   1.414       .  A
C132       C1546   1.412       .  A
C133        C134   1.409   1_655  A
C133       C1543   1.409       .  A
C134        C142   1.403       .  A
C135        C144   1.407       .  A
C135        C136   1.405       .  A
C135       C1541   1.409       .  A
C136        C137   1.402       .  A
C136        H147   1.083       .  S
C137        C138   1.404       .  A
C137        H148   1.083       .  S
C138        C139   1.407       .  A
C138       C1540   1.412       .  A
C139       C1548   1.407       .  A
C139        H149   1.084       .  S
C140        C141   1.404   1_655  A
C140       C1547   1.407       .  A
C141        H150   1.085       .  S
C142        C143   1.414   1_455  A
C142        H151   1.075       .  S
C143       C1552   1.413       .  A
C144       C1551   1.413       .  A
C144        H152   1.084       .  S
C153        C154   1.400       .  A
C153        C158   1.404       .  A
C153        H169   1.084       .  S
C154        C155   1.404       .  A
C154        H170   1.084       .  S
C155        C165   1.405       .  A
C155       C1564   1.412       .  A
C156        C162   1.410   1_655  A
C156        C157   1.414       .  A
C156       C1563   1.412       .  A
C157        C159   1.413   1_655  A
C157       C1566   1.411       .  A
C158        C166   1.404       .  A
C158       C1565   1.411       .  A
C159        C168   1.407       .  A
C159        C160   1.403       .  A
C160        C161   1.400       .  A
C160        H171   1.083       .  S
C161        C162   1.404       .  A
C161        H172   1.083       .  S
C162        C163   1.404       .  A
C163        C164   1.409   1_455  A
C163        H173   1.084       .  S
C164       C1573   1.409       .  A
C165       C1572   1.409       .  A
C165        H174   1.083       .  S
C166       C1575   1.408       .  A
C166        H175   1.084       .  S
C167        C168   1.405   1_655  A
C167       C1574   1.408       .  A
C168        H176   1.084       .  S
C177        C178   1.400       .  A
C177        C182   1.404       .  A
C177        H193   1.084       .  S
C178        C179   1.404       .  A
C178        H194   1.084       .  S
C179        C189   1.405       .  A
C179       C1588   1.412   1_455  A
C180        C186   1.412       .  A
C180        C181   1.413       .  A
C180       C1587   1.412       .  A
C181        C183   1.412       .  A
C181       C1590   1.411       .  A
C182        C190   1.404       .  A
C182       C1589   1.411   1_455  A
C183        C192   1.404       .  A
C183        C184   1.404       .  A
C184        C185   1.399       .  A
C184        H195   1.084       .  S
C185        C186   1.403       .  A
C185        H196   1.083       .  S
C186        C187   1.403       .  A
C187       C1596   1.405       .  A
C187        H197   1.084       .  S
C188        C189   1.406   1_655  A
C188       C1595   1.405       .  A
C189        H198   1.084       .  S
C190        C191   1.408   1_455  A
C190        H199   1.084       .  S
C191       C1600   1.407       .  A
C192       C1599   1.407       .  A
C192        H200   1.084       .  S
C201        C202   1.400       .  A
C201        C206   1.403       .  A
C201        H217   1.084       .  S
C202        C203   1.404       .  A
C202        H218   1.084       .  S
C203        C213   1.405       .  A
C203       C1612   1.411       .  A
C204        C210   1.411   1_655  A
C204        C205   1.414       .  A
C204       C1611   1.411       .  A
C205        C207   1.412   1_655  A
C205       C1614   1.412       .  A
C206        C214   1.404       .  A
C206       C1613   1.412       .  A
C207        C216   1.405       .  A
C207        C208   1.404       .  A
C208        C209   1.400       .  A
C208        H219   1.083       .  S
C209        C210   1.404       .  A
C209        H220   1.083       .  S
C210        C211   1.406       .  A
C211        C212   1.408   1_455  A
C211        H221   1.084       .  S
C212       C1621   1.408       .  A
C213       C1620   1.408       .  A
C213        H222   1.084       .  S
C214       C1623   1.405       .  A
C214        H223   1.084       .  S
C215        C216   1.406   1_655  A
C215       C1622   1.405       .  A
C216        H224   1.084       .  S
C225        C226   1.400       .  A
C225        C230   1.404       .  A
C225        H241   1.084       .  S
C226        C227   1.404       .  A
C226        H242   1.084       .  S
C227        C237   1.406       .  A
C227        C228   1.411       .  A
C228        C229   1.414       .  A
C228       C1642   1.412       .  A
C229        C230   1.412       .  A
C229       C1639   1.412       .  A
C230        C238   1.405       .  A
C231        C240   1.406       .  A
C231        C232   1.403       .  A
C231       C1637   1.412   1_455  A
C232        C233   1.400       .  A
C232        H243   1.083       .  S
C233        C234   1.404       .  A
C233        H244   1.083       .  S
C234        C235   1.406       .  A
C234       C1636   1.412   1_455  A
C235        C236   1.408   1_455  A
C235        H245   1.084       .  S
C236       C1645   1.409       .  A
C237       C1644   1.409       .  A
C237        H246   1.084       .  S
C238        C239   1.406       .  A
C238        H247   1.084       .  S
C239       C1648   1.404       .  A
C240       C1647   1.405       .  A
C240        H248   1.084       .  S
C249        C250   1.400       .  A
C249        C254   1.404       .  A
C249        H265   1.084       .  S
C250        C251   1.404       .  A
C250        H266   1.084       .  S
C251        C261   1.405       .  A
C251        C252   1.412       .  A
C252        C253   1.412       .  A
C252       C1666   1.411       .  A
C253        C254   1.411       .  A
C253       C1663   1.412       .  A
C254        C262   1.403       .  A
C255        C264   1.403       .  A
C255        C256   1.403       .  A
C255       C1661   1.412       .  A
C256        C257   1.399       .  A
C256        H267   1.083       .  S
C257        C258   1.403       .  A
C257        H268   1.084       .  S
C258        C259   1.402       .  A
C258       C1660   1.411       .  A
C259        C260   1.406   1_455  A
C259        H269   1.084       .  S
C260       C1669   1.407       .  A
C261       C1668   1.407       .  A
C261        H270   1.084       .  S
C262        C263   1.406       .  A
C262        H271   1.083       .  S
C263       C1672   1.405       .  A
C264       C1671   1.405       .  A
C264        H272   1.084       .  S
C273        C274   1.402       .  A
C273        C278   1.405       .  A
C273        H289   1.084       .  S
C274        C275   1.405       .  A
C274        H290   1.083       .  S
C275        C285   1.410       .  A
C275       C1684   1.413   1_455  A
C276        C282   1.410       .  A
C276        C277   1.414       .  A
C276       C1683   1.413       .  A
C277        C279   1.413       .  A
C277       C1686   1.411       .  A
C278        C286   1.406       .  A
C278       C1685   1.411   1_455  A
C279        C288   1.402       .  A
C279        C280   1.402       .  A
C280        C281   1.397       .  A
C280        H291   1.084       .  S
C281        C282   1.403       .  A
C281        H292   1.084       .  S
C282        C283   1.400       .  A
C283        C284   1.407       .  A
C283        H293   1.084       .  S
C284       C1693   1.409       .  A
C285       C1692   1.410   1_455  A
C285        H294   1.084       .  S
C286       C1695   1.407   1_455  A
C286        H295   1.084       .  S
C287        C288   1.403       .  A
C287       C1694   1.407       .  A
C288        H296   1.084       .  S
C297        C298   1.401       .  A
C297        C302   1.404       .  A
C297        H313   1.083       .  S
C298        C299   1.404       .  A
C298        H314   1.083       .  S
C299        C309   1.407       .  A
C299        C300   1.412       .  A
C300        C301   1.414       .  A
C300       C1714   1.411       .  A
C301        C302   1.412       .  A
C301       C1711   1.413       .  A
C302        C310   1.406       .  A
C303        C312   1.404       .  A
C303        C304   1.403       .  A
C303       C1709   1.413   1_455  A
C304        C305   1.399       .  A
C304        H315   1.084       .  S
C305        C306   1.404       .  A
C305        H316   1.084       .  S
C306        C307   1.404       .  A
C306       C1708   1.411   1_455  A
C307       C1716   1.408   1_455  A
C307        H317   1.084       .  S
C308        C309   1.409       .  A
C308       C1715   1.408       .  A
C309        H318   1.084       .  S
C310        C311   1.405       .  A
C310        H319   1.084       .  S
C311       C1720   1.403       .  A
C312       C1719   1.403   1_455  A
C312        H320   1.084       .  S
C321        C322   1.401       .  A
C321        C326   1.405       .  A
C321        H337   1.084       .  S
C322        C323   1.404       .  A
C322        H338   1.084       .  S
C323        C333   1.406       .  A
C323       C1732   1.411       .  A
C324        C330   1.413       .  A
C324       C1731   1.412       .  A
C324       C1733   1.416       .  A
C325        C326   1.412       .  A
C325       C1732   1.416       .  A
C325       C1735   1.411   1_455  A
C326        C334   1.408       .  A
C327        C336   1.407       .  A
C327        C328   1.404       .  A
C327       C1733   1.411       .  A
C328        C329   1.401       .  A
C328        H339   1.083       .  S
C329        C330   1.404       .  A
C329        H340   1.083       .  S
C330        C331   1.408       .  A
C331        C332   1.406       .  A
C331        H341   1.084       .  S
C332       C1741   1.407       .  A
C333       C1740   1.407       .  A
C333        H342   1.084       .  S
C334       C1743   1.409       .  A
C334        H343   1.084       .  S
C335        C336   1.409       .  A
C335       C1742   1.409       .  A
C336        H344   1.084       .  S
C345        C346   1.401       .  A
C345        C350   1.404       .  A
C345        H361   1.084       .  S
C346        C347   1.404       .  A
C346        H362   1.083       .  S
C347        C357   1.406       .  A
C347       C1756   1.412       .  A
C348        C354   1.412       .  A
C348        C349   1.413       .  A
C348       C1755   1.412       .  A
C349        C351   1.411       .  A
C349       C1758   1.412       .  A
C350        C358   1.407       .  A
C350       C1757   1.412       .  A
C351        C360   1.402       .  A
C351        C352   1.403       .  A
C352        C353   1.398       .  A
C352        H363   1.084       .  S
C353        C354   1.403       .  A
C353        H364   1.084       .  S
C354        C355   1.402       .  A
C355        C356   1.404       .  A
C355        H365   1.083       .  S
C356       C1765   1.405       .  A
C357       C1764   1.406       .  A
C357        H366   1.084       .  S
C358       C1767   1.408       .  A
C358        H367   1.084       .  S
C359        C360   1.408       .  A
C359       C1766   1.408       .  A
C360        H368   1.084       .  S
C369        C370   1.399       .  A
C369        C374   1.405       .  A
C369        H385   1.084       .  S
C370        C371   1.403       .  A
C370        H386   1.083       .  S
C371        C381   1.404       .  A
C371        C372   1.411       .  A
C372        C373   1.416       .  A
C372       C1786   1.412       .  A
C373        C374   1.409       .  A
C373       C1783   1.409       .  A
C374        C382   1.404       .  A
C375        C384   1.408       .  A
C375        C376   1.405       .  A
C375       C1781   1.409   1_455  A
C376        C377   1.402       .  A
C376        H387   1.083       .  S
C377        C378   1.404       .  A
C377        H388   1.083       .  S
C378        C379   1.408       .  A
C378       C1780   1.412   1_455  A
C379       C1788   1.408   1_455  A
C379        H389   1.084       .  S
C380        C381   1.406       .  A
C380       C1787   1.408       .  A
C381        H390   1.084       .  S
C382        C383   1.415       .  A
C382        H391   1.078       .  S
C383       C1792   1.414       .  A
C384       C1791   1.414   1_455  A
C384        H392   1.084       .  S
C393        C394   1.400       .  A
C393        C398   1.404       .  A
C393        H409   1.084       .  S
C394        C395   1.404       .  A
C394        H410   1.084       .  S
C395        C405   1.406       .  A
C395       C1804   1.411       .  A
C396        C402   1.412   1_655  A
C396        C397   1.416       .  A
C396       C1803   1.411       .  A
C397        C399   1.411   1_655  A
C397       C1806   1.411       .  A
C398        C406   1.406       .  A
C398       C1805   1.411       .  A
C399        C408   1.409       .  A
C399        C400   1.405       .  A
C400        C401   1.402       .  A
C400        H411   1.083       .  S
C401        C402   1.405       .  A
C401        H412   1.083       .  S
C402        C403   1.409       .  A
C403       C1812   1.406   1_455  A
C403        H413   1.082       .  S
C404        C405   1.408       .  A
C404       C1811   1.406       .  A
C405        H414   1.084       .  S
C406        C407   1.407       .  A
C406        H415   1.080       .  S
C407       C1816   1.409       .  A
C408       C1815   1.409   1_455  A
C408        H416   1.084       .  S
C417        C418   1.398       .  A
C417        C422   1.403       .  A
C417        H433   1.084       .  S
C418        C419   1.403       .  A
C418        H434   1.084       .  S
C419        C429   1.404       .  A
C419        C420   1.412       .  A
C420        C421   1.418       .  A
C420       C1130   1.412       .  A
C421        C422   1.410       .  A
C421       C1127   1.414       .  A
C422        C430   1.402       .  A
C423        C424   1.405       .  A
C423       C1125   1.413   1_545  A
C423       C1136   1.411       .  A
C424        C425   1.403       .  A
C424        H435   1.083       .  S
C425        C426   1.405       .  A
C425        H436   1.083       .  S
C426        C427   1.410       .  A
C426       C1124   1.412   1_545  A
C427        C428   1.407   1_545  A
C427        H437   1.084       .  S
C428       C1133   1.407       .  A
C429       C1132   1.405       .  A
C429        H438   1.084       .  S
C430        C431   1.408       .  A
C430        H439   1.084       .  S
C431        C432   1.409       .  A
C432       C1127   1.415       .  A
C432       H1144   1.084       .  S
H440       C1136   1.084       .  S
C441        C442   1.400       .  A
C441        C446   1.404       .  A
C441        H457   1.084       .  S
C442        C443   1.403       .  A
C442        H458   1.084       .  S
C443        C453   1.405       .  A
C443        C444   1.412       .  A
C444        C445   1.417       .  A
C444       C1154   1.412       .  A
C445        C446   1.410       .  A
C445       C1151   1.412       .  A
C446        C454   1.405       .  A
C447        C456   1.412       .  A
C447        C448   1.405   1_565  A
C447       C1149   1.413       .  A
C448        C449   1.404       .  A
C448        H459   1.083       .  S
C449        C450   1.406       .  A
C449        H460   1.083       .  S
C450        C451   1.411       .  A
C450       C1148   1.412   1_545  A
C451        C452   1.410   1_545  A
C451        H461   1.084       .  S
C452       C1157   1.409       .  A
C453       C1156   1.405       .  A
C453        H462   1.084       .  S
C454        C455   1.410       .  A
C454        H463   1.084       .  S
C455       C1160   1.409       .  A
C456       C1159   1.407       .  A
C456        H464   1.083   1_565  S
C465        C466   1.400       .  A
C465        C470   1.404       .  A
C465        H481   1.084       .  S
C466        C467   1.404       .  A
C466       H1186   1.083       .  S
C467        C477   1.406       .  A
C467        C468   1.412       .  A
C468        C474   1.412   1_565  A
C468        C469   1.415   1_565  A
C469        C471   1.412       .  A
C469        C470   1.411   1_545  A
C470        C478   1.406       .  A
C471        C480   1.406       .  A
C471        C472   1.404       .  A
C472        C473   1.400       .  A
C472        H483   1.083       .  S
C473        C474   1.404       .  A
C473        H484   1.084       .  S
C474        C475   1.405       .  A
C475        C476   1.405   1_545  A
C475        H485   1.084       .  S
C476        C477   1.405       .  A
C477        H486   1.084       .  S
C478        C479   1.409   1_565  A
C478        H487   1.084       .  S
C479        C480   1.409       .  A
C480        H488   1.084       .  S
H482       C1170   1.083       .  S
C489        C490   1.399       .  A
C489        C494   1.404       .  A
C489        H505   1.084       .  S
C490        C491   1.404       .  A
C490        H506   1.084       .  S
C491        C501   1.404       .  A
C491        C492   1.411       .  A
C492        C498   1.412   1_565  A
C492        C493   1.414       .  A
C493        C495   1.412   1_565  A
C493        C494   1.412       .  A
C494        C502   1.404       .  A
C495        C504   1.405       .  A
C495        C496   1.404       .  A
C496        C497   1.400       .  A
C496        H507   1.083       .  S
C497        C498   1.404       .  A
C497        H508   1.083       .  S
C498        C499   1.406       .  A
C499        C500   1.407   1_545  A
C499        H509   1.084       .  S
C500        C501   1.407       .  A
C501        H510   1.084       .  S
C502        C503   1.406   1_565  A
C502        H511   1.084       .  S
C503        C504   1.407       .  A
C504        H512   1.084       .  S
C513        C514   1.401       .  A
C513        C518   1.404       .  A
C513        H529   1.083       .  S
C514        C515   1.404       .  A
C514        H530   1.083       .  S
C515        C525   1.407       .  A
C515       C1220   1.413   1_545  A
C516        C522   1.412       .  A
C516        C517   1.415       .  A
C516       C1219   1.412       .  A
C517        C519   1.409       .  A
C517       C1222   1.411       .  A
C518        C526   1.407       .  A
C518       C1221   1.412   1_545  A
C519        C528   1.402       .  A
C519        C520   1.404       .  A
C520        C521   1.398       .  A
C520        H531   1.084       .  S
C521        C522   1.402       .  A
C521        H532   1.084       .  S
C522        C523   1.402       .  A
C523        C524   1.403       .  A
C523        H533   1.085       .  S
C524       C1229   1.407       .  A
C525       C1228   1.404       .  A
C525        H534   1.084       .  S
C526       C1231   1.406   1_545  A
C526        H535   1.084       .  S
C527        C528   1.412       .  A
C527       C1230   1.412       .  A
C528        H536   1.082       .  S
C537        C538   1.396       .  A
C537        C542   1.402       .  A
C537        H553   1.084       .  S
C538        C539   1.404       .  A
C538        H554   1.084       .  S
C539        C549   1.399       .  A
C539        C540   1.406       .  A
C540        C546   1.412       .  A
C540        C541   1.416       .  A
C541        C542   1.411       .  A
C541       C1247   1.409       .  A
C542        C550   1.401       .  A
C543        C552   1.413       .  A
C543        C544   1.407       .  A
C543       C1245   1.409       .  A
C544        C545   1.407       .  A
C544        H555   1.083       .  S
C545       C1250   1.407       .  A
C545        H556   1.083       .  S
C546        C547   1.414       .  A
C546       C1249   1.406       .  A
C547        C548   1.414       .  A
C547       H1261   1.081       .  S
C548        C549   1.416       .  A
C549        H558   1.080       .  S
C550        C551   1.408       .  A
C550        H559   1.084       .  S
C551       C1256   1.414       .  A
C552       C1255   1.416       .  A
C552        H560   1.083       .  S
H557       C1251   1.081       .  S
C561        C562   1.399       .  A
C561        C566   1.403   1_565  A
C561        H577   1.084       .  S
C562        C563   1.404   1_565  A
C562        H578   1.084       .  S
C563        C573   1.403       .  A
C563        C564   1.411       .  A
C564        C570   1.412       .  A
C564        C565   1.413       .  A
C565        C567   1.412       .  A
C565        C566   1.411       .  A
C566        C574   1.402       .  A
C567        C576   1.405       .  A
C567        C568   1.404       .  A
C568        C569   1.401       .  A
C568        H579   1.083       .  S
C569        C570   1.404       .  A
C569        H580   1.083       .  S
C570        C571   1.406       .  A
C571        C572   1.408       .  A
C571        H581   1.084       .  S
C572        C573   1.407       .  A
C573        H582   1.084   1_545  S
C574        C575   1.407       .  A
C574        H583   1.084       .  S
C575        C576   1.407       .  A
C576        H584   1.084       .  S
C585        C586   1.400       .  A
C585        C590   1.404       .  A
C585        H601   1.083       .  S
C586        C587   1.403       .  A
C586        H602   1.083       .  S
C587        C597   1.405       .  A
C587        C588   1.412       .  A
C588        C594   1.411       .  A
C588        C589   1.414       .  A
C589        C591   1.411       .  A
C589        C590   1.412       .  A
C590        C598   1.405       .  A
C591        C600   1.404       .  A
C591        C592   1.404   1_545  A
C592        C593   1.400       .  A
C592       H1307   1.084       .  S
C593        C594   1.404   1_565  A
C593       H1308   1.084       .  S
C594        C595   1.404       .  A
C595        C596   1.407       .  A
C595        H605   1.084       .  S
C596        C597   1.406       .  A
C597        H606   1.084       .  S
C598        C599   1.407       .  A
C598        H607   1.084       .  S
C599        C600   1.408       .  A
C600        H608   1.084   1_545  S
H603       C1296   1.084       .  S
H604       C1297   1.084       .  S
C609        C610   1.400       .  A
C609        C614   1.404       .  A
C609        H625   1.083       .  S
C610        C611   1.404       .  A
C610        H626   1.083       .  S
C611        C621   1.405       .  A
C611        C612   1.411       .  A
C612       C1322   1.411       .  A
C612       C1317   1.413       .  A
C613        C615   1.412       .  A
C613       C1316   1.414       .  A
C613       C1318   1.413       .  A
C614        C622   1.405       .  A
C614       C1317   1.412       .  A
C615        C624   1.402       .  A
C615        C616   1.403   1_545  A
C616        C617   1.398       .  A
C616        H627   1.084       .  S
C617        C618   1.403   1_565  A
C617        H628   1.084       .  S
C618        C619   1.403       .  A
C618       C1316   1.411       .  A
C619       C1324   1.407       .  A
C619        H629   1.084   1_545  S
C620        C621   1.408       .  A
C620       C1323   1.408       .  A
C621        H630   1.084       .  S
C622        C623   1.404       .  A
C622        H631   1.084       .  S
C623       C1328   1.405       .  A
C624       C1327   1.403       .  A
C624        H632   1.085   1_545  S
C633        C634   1.399       .  A
C633        C638   1.403       .  A
C633        H649   1.084       .  S
C634        C635   1.404       .  A
C634        H650   1.084       .  S
C635        C645   1.403       .  A
C635        C636   1.411       .  A
C636       C1346   1.412       .  A
C636       C1341   1.412       .  A
C637        C639   1.412       .  A
C637       C1340   1.412       .  A
C637       C1342   1.413       .  A
C638        C646   1.403       .  A
C638       C1341   1.412       .  A
C639        C648   1.402       .  A
C639        C640   1.403       .  A
C640        C641   1.399       .  A
C640        H651   1.084       .  S
C641        C642   1.404       .  A
C641        H652   1.084       .  S
C642        C643   1.404       .  A
C642       C1340   1.412       .  A
C643       C1348   1.407       .  A
C643        H653   1.084       .  S
C644        C645   1.408       .  A
C644       C1347   1.407       .  A
C645        H654   1.084       .  S
C646        C647   1.405       .  A
C646        H655   1.084       .  S
C647       C1352   1.404       .  A
C648       C1351   1.404       .  A
C648        H656   1.084       .  S
C657        C658   1.399       .  A
C657        C662   1.403       .  A
C657        H673   1.083       .  S
C658        C659   1.404       .  A
C658        H674   1.084       .  S
C659        C669   1.403       .  A
C659        C660   1.411       .  A
C660        C666   1.412       .  A
C660        C661   1.412       .  A
C661        C663   1.411       .  A
C661        C662   1.412       .  A
C662        C670   1.404       .  A
C663        C672   1.401       .  A
C663       C1368   1.403   1_545  A
C664        C665   1.398       .  A
C664       C1367   1.403       .  A
C664        H675   1.084       .  S
C665       C1370   1.403       .  A
C665        H676   1.084       .  S
C666       C1369   1.403   1_545  A
C666       C1371   1.403       .  A
C667       C1370   1.401       .  A
C667       C1372   1.406       .  A
C667        H677   1.084       .  S
C668        C669   1.406       .  A
C668       C1371   1.406       .  A
C669        H678   1.084       .  S
C670        C671   1.405       .  A
C670        H679   1.084       .  S
C671        C672   1.405       .  A
C672        H680   1.084   1_545  S
C681        C682   1.399       .  A
C681        C686   1.404       .  A
C681        H697   1.084       .  S
C682        C683   1.403       .  A
C682        H698   1.084       .  S
C683        C693   1.404       .  A
C683       C1388   1.412       .  A
C684        C690   1.413       .  A
C684        C685   1.413       .  A
C684       C1387   1.412       .  A
C685        C687   1.411       .  A
C685       C1390   1.412       .  A
C686        C694   1.404       .  A
C686       C1389   1.411       .  A
C687        C696   1.405       .  A
C687        C688   1.404       .  A
C688        C689   1.401       .  A
C688        H699   1.084       .  S
C689        C690   1.404       .  A
C689        H700   1.083       .  S
C690        C691   1.406       .  A
C691        C692   1.405       .  A
C691        H701   1.084       .  S
C692       C1397   1.404       .  A
C693       C1396   1.404       .  A
C693        H702   1.084       .  S
C694       C1399   1.407       .  A
C694        H703   1.084       .  S
C695        C696   1.408       .  A
C695       C1398   1.407       .  A
C696        H704   1.084       .  S
O705        V713   1.898       .  S
O705        C715   1.265       .  A
O706       V2121   1.899       .  S
O707        V713   1.903       .  S
O708       V2121   1.899       .  S
O708        C718   1.265       .  A
O709        V714   1.905       .  S
O710       V2122   1.901       .  S
O710        C717   1.265       .  A
O711        V714   1.904       .  S
O711        C716   1.265       .  A
O712       V2122   1.904       .  S
V713       O2114   1.899   1_455  S
V713       O2116   1.900   1_455  S
V713       V1418   2.086       .  T
V714       O2118   1.901       .  S
V714       O2120   1.904       .  S
V714       V1417   2.086       .  T
C715       C1348   1.480       .  S
C716       C1372   1.480       .  S
C717       C1399   1.482       .  S
C718       C1324   1.483       .  S
C719       C1396   1.481       .  S
C719        C720   1.415   1_554  A
C719        C724   1.403       .  A
C720       C1300   1.488       .  S
C720        C721   1.408       .  A
C721        C722   1.405       .  A
C721        H726   1.084       .  S
C722       C1279   1.483       .  S
C722        C723   1.412   1_556  A
C723       C1375   1.481       .  S
C723        C724   1.404       .  A
C724        H725   1.085       .  S
C727       C1255   1.503       .  S
C727        C728   1.419       .  A
C727        C732   1.416       .  A
C728       C1351   1.478       .  S
C729        H734   1.085       .  S
C730       C1327   1.480       .  S
C730        C731   1.409       .  A
C731       C1228   1.485       .  S
C731        C732   1.408       .  A
C732        H733   1.084       .  S
O735        V743   1.899   1_545  S
O736       V2151   1.905       .  S
O737        V743   1.903       .  S
O738       V2151   1.900   1_545  S
O739        V744   1.909       .  S
O739        C748   1.267       .  A
O740       V2152   1.907       .  S
O740        C747   1.266       .  A
O741        V744   1.898       .  S
O741        C746   1.264       .  A
O742       V2152   1.901       .  S
O742        C745   1.265       .  A
V743       O2144   1.905   1_455  S
V743       O2146   1.899   1_465  S
V743       V1448   2.086   1_565  T
V744       O2148   1.908       .  S
V744       O2150   1.901       .  S
V744       V1447   2.085       .  T
C745       C1303   1.482       .  S
C746       C1183   1.485       .  S
C747       C1207   1.487       .  S
C748       C1276   1.487       .  S
C749       C1156   1.487       .  S
C749        C750   1.415       .  A
C749        C754   1.415       .  A
C750       C1204   1.488       .  S
C750        C751   1.403       .  A
C751        C752   1.402       .  A
C751        H756   1.085       .  S
C752       C1180   1.479       .  S
C752        C753   1.413       .  A
C753       C1132   1.493       .  S
C753        C754   1.413       .  A
C754        H755   1.084       .  S
C757       C1111   1.491       .  S
C757        C758   1.417       .  A
C757        C762   1.409       .  A
C758       C1060   1.486       .  S
C758        C759   1.405       .  A
C759        C760   1.405       .  A
C759        H764   1.085       .  S
C760       C1036   1.480       .  S
C760        C761   1.413       .  A
C761       C1084   1.490       .  S
C761        C762   1.409       .  A
C762        H763   1.084       .  S
O765        V773   1.904       .  S
O765        C775   1.266       .  A
O766        C776   1.267       .  A
O767        V773   1.896       .  S
O767        C777   1.264       .  A
O768        C778   1.264       .  A
O769       C2186   1.269   1_455  A
O770        V774   1.901       .  S
O770       C2185   1.266   1_455  A
O771       C2184   1.266   1_455  A
O772        V774   1.903       .  S
O772       C2183   1.265       .  A
V773       V2182   2.086       .  T
V774       V2181   2.086   1_455  T
C775       O2180   1.265       .  A
C775       C1039   1.485       .  S
C776       O2179   1.266       .  A
C776       C1012   1.488       .  S
C777       O2178   1.265       .  A
C777        C988   1.478       .  S
C778       O2177   1.268       .  A
C778       C1063   1.488       .  S
C779       C1015   1.482       .  S
C779        C780   1.413       .  A
C779        C784   1.401       .  A
C780        C967   1.479       .  S
C780        C781   1.406       .  A
C781        C782   1.403       .  A
C781        H786   1.084       .  S
C782        C943   1.485       .  S
C782        C783   1.412       .  A
C783        C991   1.475       .  S
C783        C784   1.404       .  A
C784        H785   1.085       .  S
C787        C788   1.543       .  S
C787       C2201   1.537       .  S
C787       C2199   1.537       .  S
C787       C1087   1.542       .  S
C788        H795   1.079       .  S
C788        C789   1.366       .  D
C789       C1494   1.548       .  S
C789       C1135   1.491       .  S
C790       C1493   1.549   1_455  S
C790       C2200   1.547       .  S
C790        H796   1.110       .  S
C791       C2195   1.537       .  S
C791        H797   1.086   1_455  S
C791       C1496   1.368       .  D
C792       C2198   1.547       .  S
C792       C1495   1.367       .  D
C792       C1108   1.487       .  S
C793       C2195   1.537       .  S
C793        H798   1.086       .  S
C793        C794   1.367       .  D
C794       C1159   1.489       .  S
O799        V807   1.898       .  S
O799        C809   1.264   1_455  A
O800        C810   1.264   1_455  A
O801        V807   1.909       .  S
O801        C811   1.267   1_455  A
O802        C812   1.266   1_455  A
O803       C2220   1.265       .  A
O804        V808   1.898       .  S
O804       C2219   1.265       .  A
O805       C2218   1.265       .  A
O806        V808   1.904       .  S
O806       C2217   1.266       .  A
V807       V2216   2.086   1_455  T
V808       V2215   2.086       .  T
C809       O2214   1.266       .  A
C809        C895   1.481       .  S
C810       O2213   1.265       .  A
C810        C964   1.479       .  S
C811       O2212   1.265       .  A
C811        C940   1.485       .  S
C812       O2211   1.266       .  A
C812        C916   1.485       .  S
C813        C868   1.494       .  S
C813        C814   1.419       .  A
C813        C818   1.410       .  A
C814        C919   1.483       .  S
C814        C815   1.403       .  A
C815        C816   1.401       .  A
C815        H820   1.085       .  S
C816        C892   1.479       .  S
C816        C817   1.413       .  A
C817        C844   1.489       .  S
C817        C818   1.407       .  A
C818        H819   1.084       .  S
C821        C822   1.537       .  S
C821       C2235   1.531   1_455  S
C821       C2233   1.538       .  S
C821        C847   1.540       .  S
C822        H829   1.070       .  S
C822        C823   1.373       .  D
C823       C1528   1.556       .  S
C823       C1252   1.519       .  S
C824       C1527   1.553       .  S
C824       C2234   1.538       .  S
C824        H830   1.105       .  S
C825       C2229   1.537       .  S
C825        H831   1.086       .  S
C825       C1530   1.366       .  D
C826       C2232   1.538   1_655  S
C826       C1529   1.363       .  D
C826        C871   1.480       .  S
C827       C2229   1.530       .  S
C827        H832   1.086       .  S
C827        C828   1.368       .  D
C828       C1231   1.489       .  S
C833        C834   1.398       .  A
C833        C838   1.405       .  A
C833        H849   1.084       .  S
C834        C835   1.402       .  A
C834        H850   1.084       .  S
C835        C845   1.403       .  A
C835        C836   1.412   1_455  A
C836       C2250   1.411       .  A
C836        C837   1.414       .  A
C837       C2247   1.410       .  A
C837        C838   1.408   1_655  A
C838        C846   1.402       .  A
C839       C2245   1.410       .  A
C839        C848   1.406       .  A
C839        C840   1.404       .  A
C840        C841   1.401       .  A
C840        H851   1.083       .  S
C841        C842   1.404       .  A
C841        H852   1.084       .  S
C842       C2244   1.411       .  A
C842        C843   1.404       .  A
C843       C2252   1.408       .  A
C843        H853   1.084       .  S
C844       C2251   1.408       .  A
C844        C845   1.405   1_655  A
C845        H854   1.084       .  S
C846        C847   1.416       .  A
C846        H855   1.075       .  S
C847       C2256   1.413   1_455  A
C848       C2255   1.413       .  A
C848        H856   1.084       .  S
C857        C858   1.399       .  A
C857        C862   1.404       .  A
C857        H873   1.084       .  S
C858        C859   1.404       .  A
C858        H874   1.084       .  S
C859        C869   1.403       .  A
C859       C2268   1.412       .  A
C860       C2267   1.411       .  A
C860        C866   1.410   1_655  A
C860        C861   1.412       .  A
C861        C863   1.413   1_655  A
C861       C2270   1.411       .  A
C862       C2269   1.411       .  A
C862        C870   1.402       .  A
C863        C872   1.405       .  A
C863        C864   1.403       .  A
C864        C865   1.400       .  A
C864        H875   1.084       .  S
C865        C866   1.404       .  A
C865        H876   1.083       .  S
C866        C867   1.403       .  A
C867        C868   1.408   1_455  A
C867        H877   1.084       .  S
C868       C2277   1.409       .  A
C869       C2276   1.408       .  A
C869        H878   1.083       .  S
C870       C2279   1.406       .  A
C870        H879   1.084       .  S
C871       C2278   1.406       .  A
C871        C872   1.403   1_655  A
C872        H880   1.084       .  S
C881        C882   1.400       .  A
C881        C886   1.404       .  A
C881        H897   1.084       .  S
C882        C883   1.404       .  A
C882        H898   1.084       .  S
C883        C893   1.404       .  A
C883       C2292   1.412   1_455  A
C884       C2291   1.412       .  A
C884        C890   1.412       .  A
C884        C885   1.412       .  A
C885        C887   1.412       .  A
C885       C2294   1.411       .  A
C886       C2293   1.411   1_455  A
C886        C894   1.404       .  A
C887        C896   1.402       .  A
C887        C888   1.403       .  A
C888        C889   1.398       .  A
C888        H899   1.083       .  S
C889        C890   1.402       .  A
C889        H900   1.084       .  S
C890        C891   1.401       .  A
C891       C2300   1.402       .  A
C891        H901   1.084       .  S
C892       C2299   1.402       .  A
C892        C893   1.405   1_655  A
C893        H902   1.084       .  S
C894        C895   1.409   1_455  A
C894        H903   1.084       .  S
C895       C2304   1.406       .  A
C896       C2303   1.406       .  A
C896        H904   1.084       .  S
C905        C906   1.400       .  A
C905        C910   1.403       .  A
C905        H921   1.084       .  S
C906        C907   1.404       .  A
C906        H922   1.084       .  S
C907        C917   1.405       .  A
C907       C2316   1.412       .  A
C908       C2315   1.411       .  A
C908        C914   1.411   1_655  A
C908        C909   1.413       .  A
C909        C911   1.412   1_655  A
C909       C2318   1.412       .  A
C910       C2317   1.412       .  A
C910        C918   1.403       .  A
C911        C920   1.404       .  A
C911        C912   1.403       .  A
C912        C913   1.400       .  A
C912        H923   1.084       .  S
C913        C914   1.404       .  A
C913        H924   1.083       .  S
C914        C915   1.405       .  A
C915        C916   1.408   1_455  A
C915        H925   1.084       .  S
C916       C2325   1.408       .  A
C917       C2324   1.408       .  A
C917        H926   1.084       .  S
C918       C2327   1.405       .  A
C918        H927   1.084       .  S
C919       C2326   1.405       .  A
C919        C920   1.404   1_655  A
C920        H928   1.084       .  S
C929        C930   1.399       .  A
C929        C934   1.403       .  A
C929        H945   1.084       .  S
C930        C931   1.404       .  A
C930        H946   1.084       .  S
C931        C941   1.404       .  A
C931        C932   1.411       .  A
C932       C2346   1.412       .  A
C932        C933   1.414       .  A
C933       C2343   1.412       .  A
C933        C934   1.412       .  A
C934        C942   1.404       .  A
C935       C2341   1.412       .  A
C935        C944   1.406       .  A
C935        C936   1.404       .  A
C936        C937   1.401       .  A
C936        H947   1.083       .  S
C937        C938   1.404       .  A
C937        H948   1.083       .  S
C938       C2340   1.412   1_455  A
C938        C939   1.407       .  A
C939        C940   1.408   1_455  A
C939        H949   1.084       .  S
C940       C2349   1.408       .  A
C941       C2348   1.408       .  A
C941        H950   1.084       .  S
C942        C943   1.405       .  A
C942        H951   1.084       .  S
C943       C2352   1.406       .  A
C944       C2351   1.406       .  A
C944        H952   1.084       .  S
C953        C954   1.397       .  A
C953        C958   1.402       .  A
C953        H969   1.084       .  S
C954        C955   1.403       .  A
C954        H970   1.083       .  S
C955        C965   1.401       .  A
C955        C956   1.412       .  A
C956       C2370   1.411       .  A
C956        C957   1.411       .  A
C957       C2367   1.412       .  A
C957        C958   1.411       .  A
C958        C966   1.398       .  A
C959       C2365   1.412       .  A
C959        C968   1.404       .  A
C959        C960   1.404       .  A
C960        C961   1.400       .  A
C960        H971   1.084       .  S
C961        C962   1.404       .  A
C961        H972   1.084       .  S
C962       C2364   1.411       .  A
C962        C963   1.404       .  A
C963        C964   1.408   1_455  A
C963        H973   1.084       .  S
C964       C2373   1.405       .  A
C965       C2372   1.405       .  A
C965        H974   1.084       .  S
C966        C967   1.403       .  A
C966        H975   1.084       .  S
C967       C2376   1.405       .  A
C968       C2375   1.405       .  A
C968        H976   1.084       .  S
C977        C978   1.397       .  A
C977        C982   1.402       .  A
C977        H993   1.084       .  S
C978        C979   1.403       .  A
C978        H994   1.084       .  S
C979        C989   1.401       .  A
C979       C2388   1.412   1_455  A
C980       C2387   1.412       .  A
C980        C986   1.411       .  A
C980        C981   1.411       .  A
C981        C983   1.413       .  A
C981       C2390   1.412       .  A
C982       C2389   1.412   1_455  A
C982        C990   1.399       .  A
C983        C992   1.403       .  A
C983        C984   1.403       .  A
C984        C985   1.399       .  A
C984        H995   1.084       .  S
C985        C986   1.404       .  A
C985        H996   1.084       .  S
C986        C987   1.402       .  A
C987        C988   1.408       .  A
C987        H997   1.084       .  S
C988       C2397   1.406       .  A
C989       C2396   1.405   1_455  A
C989        H998   1.084       .  S
C990       C2399   1.402   1_455  A
C990        H999   1.085       .  S
C991       C2398   1.402       .  A
C991        C992   1.404       .  A
C992       H1000   1.084       .  S
C1001      C1002   1.401       .  A
C1001      C1006   1.404       .  A
C1001      H1017   1.083       .  S
C1002      C1003   1.405       .  A
C1002      H1018   1.083       .  S
C1003      C1013   1.407       .  A
C1003      C1004   1.411       .  A
C1004      C2418   1.411       .  A
C1004      C1005   1.414       .  A
C1005      C2415   1.412       .  A
C1005      C1006   1.413       .  A
C1006      C1014   1.406       .  A
C1007      C2413   1.412   1_455  A
C1007      C1016   1.404       .  A
C1007      C1008   1.403       .  A
C1008      C1009   1.399       .  A
C1008      H1019   1.084       .  S
C1009      C1010   1.404       .  A
C1009      H1020   1.083       .  S
C1010      C2412   1.411   1_455  A
C1010      C1011   1.405       .  A
C1011      C2420   1.409   1_455  A
C1011      H1021   1.084       .  S
C1012      C2419   1.409       .  A
C1012      C1013   1.409       .  A
C1013      H1022   1.084       .  S
C1014      C1015   1.405       .  A
C1014      H1023   1.084       .  S
C1015      C2424   1.403       .  A
C1016      C2423   1.403   1_455  A
C1016      H1024   1.084       .  S
C1025      C1026   1.401       .  A
C1025      C1030   1.404       .  A
C1025      H1041   1.084       .  S
C1026      C1027   1.404       .  A
C1026      H1042   1.084       .  S
C1027      C1037   1.405       .  A
C1027      C2436   1.412       .  A
C1028      C2435   1.412       .  A
C1028      C1034   1.413       .  A
C1028      C2437   1.414       .  A
C1029      C2436   1.414       .  A
C1029      C2439   1.411   1_455  A
C1029      C1030   1.411       .  A
C1030      C1038   1.406       .  A
C1031      C2437   1.411       .  A
C1031      C1040   1.405       .  A
C1031      C1032   1.404       .  A
C1032      C1033   1.399       .  A
C1032      H1043   1.083       .  S
C1033      C1034   1.403       .  A
C1033      H1044   1.083       .  S
C1034      C1035   1.404       .  A
C1035      C1036   1.403       .  A
C1035      H1045   1.084       .  S
C1036      C2445   1.405       .  A
C1037      C2444   1.405       .  A
C1037      H1046   1.084       .  S
C1038      C2447   1.409       .  A
C1038      H1047   1.084       .  S
C1039      C2446   1.409       .  A
C1039      C1040   1.408       .  A
C1040      H1048   1.084       .  S
C1049      C1050   1.400       .  A
C1049      C1054   1.404       .  A
C1049      H1065   1.083       .  S
C1050      C1051   1.403       .  A
C1050      H1066   1.083       .  S
C1051      C1061   1.406       .  A
C1051      C2460   1.412   1_455  A
C1052      C2459   1.412       .  A
C1052      C1058   1.412       .  A
C1052      C1053   1.415       .  A
C1053      C1055   1.411       .  A
C1053      C2462   1.412       .  A
C1054      C2461   1.412   1_455  A
C1054      C1062   1.406       .  A
C1055      C1064   1.407       .  A
C1055      C1056   1.405       .  A
C1056      C1057   1.402       .  A
C1056      H1067   1.084       .  S
C1057      C1058   1.404       .  A
C1057      H1068   1.084       .  S
C1058      C1059   1.407       .  A
C1059      C1060   1.407       .  A
C1059      H1069   1.084       .  S
C1060      C2469   1.404       .  A
C1061      C2468   1.404       .  A
C1061      H1070   1.084       .  S
C1062      C2471   1.407   1_455  A
C1062      H1071   1.084       .  S
C1063      C2470   1.407       .  A
C1063      C1064   1.410       .  A
C1064      H1072   1.084       .  S
C1073      C1074   1.398       .  A
C1073      C1078   1.405       .  A
C1073      H1089   1.083       .  S
C1074      C1075   1.402       .  A
C1074      H1090   1.084       .  S
C1075      C1085   1.402       .  A
C1075      C1076   1.412       .  A
C1076      C2490   1.412       .  A
C1076      C1077   1.416       .  A
C1077      C2487   1.410       .  A
C1077      C1078   1.408       .  A
C1078      C1086   1.404       .  A
C1079      C2485   1.410       .  A
C1079      C1088   1.410       .  A
C1079      C1080   1.406       .  A
C1080      C1081   1.404       .  A
C1080      H1091   1.083       .  S
C1081      C1082   1.405       .  A
C1081      H1092   1.083       .  S
C1082      C2484   1.412       .  A
C1082      C1083   1.411       .  A
C1083      C2492   1.409       .  A
C1083      H1093   1.084       .  S
C1084      C2491   1.409       .  A
C1084      C1085   1.404       .  A
C1085      H1094   1.085       .  S
C1086      C1087   1.415       .  A
C1086      H1095   1.073       .  S
C1087      C2496   1.414       .  A
C1088      C2495   1.414       .  A
C1088      H1096   1.084       .  S
C1097      C1098   1.400       .  A
C1097      C1102   1.404       .  A
C1097      H1113   1.084       .  S
C1098      C1099   1.404       .  A
C1098      H1114   1.083       .  S
C1099      C1109   1.405       .  A
C1099      C2508   1.411       .  A
C1100      C2507   1.411   1_455  A
C1100      C1106   1.412       .  A
C1100      C1101   1.415       .  A
C1101      C1103   1.412       .  A
C1101      C2510   1.412   1_455  A
C1102      C2509   1.412       .  A
C1102      C1110   1.404       .  A
C1103      C1112   1.406       .  A
C1103      C1104   1.404       .  A
C1104      C1105   1.401       .  A
C1104      H1115   1.084       .  S
C1105      C1106   1.404       .  A
C1105      H1116   1.084       .  S
C1106      C1107   1.406       .  A
C1107      C2516   1.405   1_455  A
C1107      H1117   1.080       .  S
C1108      C2515   1.405       .  A
C1108      C1109   1.407       .  A
C1109      H1118   1.084       .  S
C1110      C1111   1.407       .  A
C1110      H1119   1.083       .  S
C1111      C2520   1.408       .  A
C1112      C2519   1.407       .  A
C1112      H1120   1.084       .  S
C1121      C1122   1.400       .  A
C1121      C1126   1.404       .  A
C1121      H1137   1.084       .  S
C1122      C1123   1.404       .  A
C1122      H1138   1.084       .  S
C1123      C1133   1.404       .  A
C1123      C1124   1.412       .  A
C1124      C1125   1.417       .  A
C1125      C1126   1.411       .  A
C1126      C1134   1.405       .  A
C1127      C1128   1.406       .  A
C1128      C1129   1.406       .  A
C1128      H1139   1.083       .  S
C1129      C1130   1.406       .  A
C1129      H1140   1.083       .  S
C1130      C1131   1.414       .  A
C1131      C1132   1.409       .  A
C1131      H1141   1.084       .  S
C1133      H1142   1.084       .  S
C1134      C1135   1.409       .  A
C1134      H1143   1.085       .  S
C1135      C1136   1.407   1_565  A
C1145      C1146   1.400       .  A
C1145      C1150   1.404       .  A
C1145      H1161   1.083       .  S
C1146      C1147   1.404       .  A
C1146      H1162   1.084       .  S
C1147      C1157   1.406       .  A
C1147      C1148   1.411       .  A
C1148      C1149   1.418       .  A
C1149      C1150   1.412       .  A
C1150      C1158   1.406       .  A
C1151      C1160   1.411       .  A
C1151      C1152   1.405       .  A
C1152      C1153   1.403       .  A
C1152      H1163   1.084       .  S
C1153      C1154   1.405       .  A
C1153      H1164   1.083       .  S
C1154      C1155   1.410       .  A
C1155      C1156   1.406       .  A
C1155      H1165   1.084       .  S
C1157      H1166   1.084       .  S
C1158      C1159   1.406       .  A
C1158      H1167   1.085       .  S
C1160      H1168   1.080       .  S
C1169      C1170   1.400       .  A
C1169      C1174   1.404       .  A
C1169      H1185   1.083       .  S
C1170      C1171   1.403       .  A
C1171      C1181   1.404       .  A
C1171      C1172   1.412       .  A
C1172      C1178   1.413       .  A
C1172      C1173   1.413       .  A
C1173      C1175   1.411       .  A
C1173      C1174   1.412       .  A
C1174      C1182   1.406       .  A
C1175      C1184   1.403       .  A
C1175      C1176   1.404       .  A
C1176      C1177   1.399       .  A
C1176      H1187   1.084       .  S
C1177      C1178   1.403       .  A
C1177      H1188   1.084       .  S
C1178      C1179   1.404       .  A
C1179      C1180   1.403       .  A
C1179      H1189   1.084       .  S
C1180      C1181   1.404       .  A
C1181      H1190   1.084       .  S
C1182      C1183   1.408       .  A
C1182      H1191   1.084       .  S
C1183      C1184   1.409       .  A
C1184      H1192   1.084       .  S
C1193      C1194   1.401       .  A
C1193      C1198   1.404       .  A
C1193      H1209   1.083       .  S
C1194      C1195   1.404       .  A
C1194      H1210   1.084       .  S
C1195      C1205   1.406       .  A
C1195      C1196   1.412       .  A
C1196      C1202   1.412       .  A
C1196      C1197   1.416       .  A
C1197      C1199   1.412       .  A
C1197      C1198   1.412       .  A
C1198      C1206   1.407       .  A
C1199      C1208   1.407       .  A
C1199      C1200   1.404       .  A
C1200      C1201   1.401       .  A
C1200      H1211   1.083       .  S
C1201      C1202   1.404       .  A
C1201      H1212   1.083       .  S
C1202      C1203   1.407       .  A
C1203      C1204   1.406       .  A
C1203      H1213   1.084       .  S
C1204      C1205   1.406       .  A
C1205      H1214   1.084       .  S
C1206      C1207   1.409       .  A
C1206      H1215   1.084       .  S
C1207      C1208   1.408       .  A
C1208      H1216   1.084       .  S
C1217      C1218   1.404       .  A
C1217      C1222   1.406       .  A
C1217      H1233   1.083       .  S
C1218      C1219   1.405       .  A
C1218      H1234   1.083       .  S
C1219      C1229   1.410       .  A
C1220      C1226   1.412       .  A
C1220      C1221   1.415       .  A
C1221      C1223   1.411       .  A
C1222      C1230   1.411       .  A
C1223      C1232   1.406       .  A
C1223      C1224   1.405       .  A
C1224      C1225   1.401       .  A
C1224      H1235   1.084       .  S
C1225      C1226   1.404       .  A
C1225      H1236   1.084       .  S
C1226      C1227   1.405       .  A
C1227      C1228   1.406   1_565  A
C1227      H1237   1.084       .  S
C1229      H1238   1.084       .  S
C1230      H1239   1.082       .  S
C1231      C1232   1.409       .  A
C1232      H1240   1.084       .  S
C1241      C1242   1.395       .  A
C1241      C1246   1.401       .  A
C1241      H1257   1.084       .  S
C1242      C1243   1.404       .  A
C1242      H1258   1.084       .  S
C1243      C1253   1.397       .  A
C1243      C1244   1.405       .  A
C1244      C1250   1.412   1_565  A
C1244      C1245   1.417   1_565  A
C1245      C1246   1.412   1_545  A
C1246      C1254   1.400       .  A
C1247      C1256   1.410       .  A
C1247      C1248   1.406       .  A
C1248      C1249   1.405       .  A
C1248      H1259   1.083       .  S
C1249      H1260   1.083       .  S
C1250      C1251   1.419       .  A
C1251      C1252   1.416   1_545  A
C1252      C1253   1.417       .  A
C1253      H1262   1.078       .  S
C1254      C1255   1.406   1_565  A
C1254      H1263   1.084       .  S
C1256      H1264   1.083       .  S
C1265      C1266   1.399       .  A
C1265      C1270   1.403       .  A
C1265      H1281   1.084       .  S
C1266      C1267   1.404       .  A
C1266      H1282   1.084       .  S
C1267      C1277   1.404       .  A
C1267      C1268   1.411       .  A
C1268      C1274   1.412       .  A
C1268      C1269   1.414       .  A
C1269      C1271   1.412       .  A
C1269      C1270   1.412       .  A
C1270      C1278   1.403       .  A
C1271      C1280   1.406       .  A
C1271      C1272   1.404       .  A
C1272      C1273   1.401       .  A
C1272      H1283   1.083       .  S
C1273      C1274   1.404       .  A
C1273      H1284   1.083       .  S
C1274      C1275   1.407       .  A
C1275      C1276   1.409       .  A
C1275      H1285   1.084       .  S
C1276      C1277   1.408       .  A
C1277      H1286   1.084       .  S
C1278      C1279   1.405       .  A
C1278      H1287   1.084       .  S
C1279      C1280   1.405       .  A
C1280      H1288   1.084       .  S
C1289      C1290   1.399       .  A
C1289      C1294   1.404       .  A
C1289      H1305   1.084       .  S
C1290      C1291   1.403       .  A
C1290      H1306   1.084       .  S
C1291      C1301   1.403       .  A
C1291      C1292   1.412       .  A
C1292      C1298   1.411       .  A
C1292      C1293   1.413       .  A
C1293      C1295   1.412       .  A
C1293      C1294   1.411       .  A
C1294      C1302   1.403       .  A
C1295      C1304   1.406       .  A
C1295      C1296   1.404       .  A
C1296      C1297   1.400       .  A
C1297      C1298   1.404       .  A
C1298      C1299   1.404       .  A
C1299      C1300   1.407       .  A
C1299      H1309   1.084       .  S
C1300      C1301   1.406       .  A
C1301      H1310   1.084       .  S
C1302      C1303   1.407       .  A
C1302      H1311   1.084       .  S
C1303      C1304   1.407       .  A
C1304      H1312   1.084       .  S
C1313      C1314   1.401       .  A
C1313      C1318   1.404       .  A
C1313      H1329   1.083       .  S
C1314      C1315   1.405       .  A
C1314      H1330   1.083       .  S
C1315      C1325   1.407       .  A
C1315      C1316   1.412       .  A
C1317      C1319   1.412       .  A
C1318      C1326   1.407       .  A
C1319      C1328   1.401       .  A
C1319      C1320   1.403       .  A
C1320      C1321   1.399       .  A
C1320      H1331   1.084       .  S
C1321      C1322   1.404       .  A
C1321      H1332   1.084       .  S
C1322      C1323   1.403       .  A
C1323      H1333   1.084       .  S
C1324      C1325   1.408       .  A
C1325      H1334   1.084       .  S
C1326      C1327   1.404       .  A
C1326      H1335   1.084       .  S
C1328      H1336   1.084       .  S
C1337      C1338   1.398       .  A
C1337      C1342   1.403   1_565  A
C1337      H1353   1.084       .  S
C1338      C1339   1.403   1_565  A
C1338      H1354   1.084       .  S
C1339      C1349   1.402       .  A
C1339      C1340   1.411       .  A
C1341      C1343   1.412       .  A
C1342      C1350   1.402       .  A
C1343      C1352   1.403       .  A
C1343      C1344   1.403       .  A
C1344      C1345   1.399       .  A
C1344      H1355   1.084       .  S
C1345      C1346   1.403       .  A
C1345      H1356   1.084       .  S
C1346      C1347   1.403       .  A
C1347      H1357   1.084       .  S
C1348      C1349   1.407       .  A
C1349      H1358   1.084   1_545  S
C1350      C1351   1.403       .  A
C1350      H1359   1.084   1_545  S
C1352      H1360   1.084       .  S
C1361      C1362   1.401       .  A
C1361      C1366   1.404       .  A
C1361      H1377   1.084       .  S
C1362      C1363   1.404       .  A
C1362      H1378   1.084       .  S
C1363      C1373   1.406       .  A
C1363      C1364   1.412       .  A
C1364      C1370   1.411       .  A
C1364      C1365   1.412       .  A
C1365      C1367   1.412       .  A
C1365      C1366   1.412       .  A
C1366      C1374   1.404       .  A
C1367      C1376   1.402       .  A
C1368      C1369   1.399       .  A
C1368      H1379   1.084       .  S
C1369      H1380   1.084       .  S
C1371      H1381   1.084   1_545  S
C1372      C1373   1.408       .  A
C1373      H1382   1.084       .  S
C1374      C1375   1.406       .  A
C1374      H1383   1.084       .  S
C1375      C1376   1.403       .  A
C1376      H1384   1.084       .  S
C1385      C1386   1.399       .  A
C1385      C1390   1.403   1_565  A
C1385      H1401   1.083       .  S
C1386      C1387   1.403   1_565  A
C1386      H1402   1.084       .  S
C1387      C1397   1.402       .  A
C1388      C1394   1.412       .  A
C1388      C1389   1.413       .  A
C1389      C1391   1.412       .  A
C1390      C1398   1.404       .  A
C1391      C1400   1.404       .  A
C1391      C1392   1.404       .  A
C1392      C1393   1.400       .  A
C1392      H1403   1.084       .  S
C1393      C1394   1.403       .  A
C1393      H1404   1.083       .  S
C1394      C1395   1.404       .  A
C1395      C1396   1.404       .  A
C1395      H1405   1.084       .  S
C1397      H1406   1.084   1_545  S
C1398      H1407   1.084   1_545  S
C1399      C1400   1.408       .  A
C1400      H1408   1.084       .  S
O1409      V1417   1.898       .  S
O1409      C1419   1.264       .  A
O1410      C2124   1.265       .  A
O1411      V1417   1.901       .  S
O1411      C2125   1.265       .  A
O1412      C1422   1.265       .  A
O1413      V1418   1.908   1_655  S
O1413      C2126   1.266       .  A
O1414      C1421   1.265       .  A
O1415      V1418   1.900   1_655  S
O1415      C1420   1.265       .  A
O1416      C2123   1.265       .  A
C1419      O2120   1.266       .  A
C1419      C2052   1.482       .  S
C1420      O2114   1.264       .  A
C1420      C2076   1.475       .  S
C1421      O2115   1.266       .  A
C1421      C2103   1.483       .  S
C1422      O2117   1.266       .  A
C1422      C2028   1.483       .  S
C1423      C2100   1.480       .  S
C1423      C1424   1.414   1_554  A
C1423      C1428   1.401       .  A
C1424      C2004   1.487       .  S
C1424      C1425   1.408       .  A
C1425      C1426   1.408       .  A
C1425      H1430   1.084       .  S
C1426      C1983   1.489       .  S
C1426      C1427   1.416   1_556  A
C1427      C2079   1.483       .  S
C1427      C1428   1.403       .  A
C1428      H1429   1.085       .  S
C1431      C1959   1.500       .  S
C1431      C1432   1.420       .  A
C1431      C1436   1.414       .  A
C1432      C2055   1.483       .  S
C1432      C2137   1.405       .  A
C1433      C2136   1.404       .  A
C1433      C2138   1.400       .  A
C1433      H1438   1.085       .  S
C1434      C2031   1.482       .  S
C1434      C2137   1.402       .  A
C1434      C1435   1.412       .  A
C1435      C1932   1.484       .  S
C1435      C1436   1.405       .  A
C1436      H1437   1.084       .  S
O1439      V1447   1.905       .  S
O1439      C2153   1.266       .  A
O1440      C2154   1.267       .  A
O1441      V1447   1.906       .  S
O1441      C2155   1.266       .  A
O1442      C2156   1.265       .  A
O1443      V1448   1.906   1_655  S
O1443      C1452   1.266       .  A
O1444      C1451   1.265       .  A
O1445      V1448   1.906   1_655  S
O1445      C1450   1.266       .  A
O1446      C1449   1.267       .  A
C1449      O2143   1.264       .  A
C1449      C2007   1.483       .  S
C1450      O2144   1.266   1_545  A
C1450      C1887   1.487       .  S
C1451      O2145   1.266   1_545  A
C1451      C1911   1.481       .  S
C1452      O2146   1.265       .  A
C1452      C1980   1.482       .  S
C1453      C1860   1.500       .  S
C1453      C1454   1.423       .  A
C1453      C1458   1.416       .  A
C1454      C1908   1.492       .  S
C1454      C1455   1.407       .  A
C1455      C1456   1.401       .  A
C1455      H1460   1.085       .  S
C1456      C1884   1.486       .  S
C1456      C1457   1.413       .  A
C1457      C1836   1.491       .  S
C1457      C1458   1.413       .  A
C1458      H1459   1.084       .  S
C1461      C1815   1.496       .  S
C1461      C1462   1.418   1_655  A
C1461      C1466   1.409       .  A
C1462      C1764   1.483       .  S
C1462      C1463   1.405       .  A
C1463      C1464   1.405       .  A
C1463      H1468   1.085       .  S
C1464      C1740   1.489       .  S
C1464      C1465   1.418   1_455  A
C1465      C1788   1.492       .  S
C1465      C1466   1.412       .  A
C1466      H1467   1.084       .  S
O1469      V1477   1.908       .  S
O1469      C1479   1.267   1_655  A
O1470      V2181   1.908       .  S
O1470      C1480   1.267   1_565  A
O1471      V1477   1.897       .  S
O1471      C1481   1.265   1_655  A
O1472      V2181   1.896       .  S
O1472      C1482   1.265   1_665  A
O1473      V2182   1.906       .  S
O1474      V1478   1.912       .  S
O1475      V2182   1.900       .  S
O1476      V1478   1.907       .  S
V1477      O2174   1.907       .  S
V1477      O2176   1.901       .  S
V1478      O2177   1.912       .  S
V1478      O2179   1.904       .  S
C1479      C1743   1.489       .  S
C1480      C1716   1.487       .  S
C1481      C1692   1.486   1_455  S
C1482      C1767   1.484       .  S
C1483      C1719   1.482       .  S
C1483      C1484   1.414   1_655  A
C1483      C1488   1.404       .  A
C1484      C1671   1.486       .  S
C1484      C1485   1.408       .  A
C1485      C1486   1.406       .  A
C1485      H1490   1.084       .  S
C1486      C1647   1.485       .  S
C1486      C1487   1.413   1_455  A
C1487      C1695   1.483       .  S
C1487      C1488   1.406       .  A
C1488      H1489   1.084       .  S
C1491      C1492   1.542       .  S
C1491      C1791   1.542       .  S
C1492      H1499   1.081       .  S
C1492      C1493   1.367       .  D
C1493      C1839   1.496       .  S
C1494      C2202   1.549       .  S
C1494      H1500   1.111   1_565  S
C1495      H1501   1.087       .  S
C1496      C1812   1.490   1_465  S
C1497      H1502   1.086       .  S
C1497      C1498   1.371       .  D
C1498      C2198   1.552       .  S
C1498      C1863   1.501       .  S
O1503      V1511   1.898       .  S
O1503      C1513   1.264       .  A
O1504      V2215   1.899       .  S
O1504      C1514   1.265   1_565  A
O1505      V1511   1.907       .  S
O1505      C1515   1.267       .  A
O1506      V2215   1.906       .  S
O1506      C1516   1.266   1_565  A
O1507      V2216   1.903       .  S
O1508      V1512   1.901       .  S
O1509      V2216   1.903       .  S
O1510      V1512   1.904       .  S
V1511      O2208   1.901       .  S
V1511      O2210   1.904       .  S
V1512      O2211   1.903       .  S
V1512      O2213   1.900       .  S
C1513      C1599   1.482       .  S
C1514      C1668   1.479       .  S
C1515      C1644   1.486       .  S
C1516      C1620   1.486       .  S
C1517      C1572   1.496       .  S
C1517      C1518   1.419       .  A
C1517      C1522   1.409       .  A
C1518      C1623   1.485       .  S
C1518      C1519   1.406       .  A
C1519      C1520   1.404       .  A
C1519      H1524   1.085       .  S
C1520      C1596   1.485       .  S
C1520      C1521   1.413       .  A
C1521      C1548   1.486       .  S
C1521      C1522   1.407       .  A
C1522      H1523   1.084       .  S
C1525      C1526   1.539       .  S
C1525      C1551   1.539       .  S
C1526      H1533   1.073       .  S
C1526      C1527   1.372       .  D
C1527      C1956   1.514       .  S
C1528      C2236   1.552   1_455  S
C1528      H1534   1.108   1_565  S
C1529      H1535   1.087       .  S
C1530      C1575   1.486   1_565  S
C1531      H1536   1.085       .  S
C1531      C1532   1.372       .  D
C1532      C2232   1.554   1_655  S
C1532      C1935   1.499       .  S
C1537      C1538   1.398       .  A
C1537      C1542   1.404       .  A
C1537      H1553   1.084       .  S
C1538      C1539   1.402       .  A
C1538      H1554   1.084       .  S
C1539      C1549   1.402       .  A
C1539      C1540   1.412       .  A
C1540      C1541   1.414       .  A
C1541      C1542   1.409       .  A
C1542      C1550   1.403       .  A
C1543      C1552   1.406       .  A
C1543      C1544   1.405       .  A
C1544      C1545   1.402       .  A
C1544      H1555   1.083       .  S
C1545      C1546   1.404       .  A
C1545      H1556   1.083       .  S
C1546      C1547   1.407       .  A
C1547      H1557   1.084       .  S
C1548      C1549   1.404       .  A
C1549      H1558   1.085       .  S
C1550      C1551   1.415       .  A
C1550      H1559   1.075       .  S
C1552      H1560   1.084       .  S
C1561      C1562   1.400       .  A
C1561      C1566   1.404       .  A
C1561      H1577   1.084       .  S
C1562      C1563   1.404       .  A
C1562      H1578   1.084       .  S
C1563      C1573   1.405       .  A
C1564      C1570   1.410       .  A
C1564      C1565   1.414       .  A
C1565      C1567   1.413       .  A
C1566      C1574   1.403       .  A
C1567      C1576   1.406       .  A
C1567      C1568   1.403       .  A
C1568      C1569   1.400       .  A
C1568      H1579   1.083       .  S
C1569      C1570   1.404       .  A
C1569      H1580   1.083       .  S
C1570      C1571   1.404       .  A
C1571      C1572   1.409       .  A
C1571      H1581   1.084       .  S
C1573      H1582   1.083       .  S
C1574      H1583   1.084       .  S
C1575      C1576   1.404       .  A
C1576      H1584   1.084       .  S
C1585      C1586   1.400       .  A
C1585      C1590   1.404       .  A
C1585      H1601   1.084       .  S
C1586      C1587   1.404       .  A
C1586      H1602   1.084       .  S
C1587      C1597   1.405       .  A
C1588      C1594   1.412       .  A
C1588      C1589   1.413       .  A
C1589      C1591   1.412       .  A
C1590      C1598   1.404       .  A
C1591      C1600   1.404       .  A
C1591      C1592   1.403       .  A
C1592      C1593   1.399       .  A
C1592      H1603   1.084       .  S
C1593      C1594   1.403       .  A
C1593      H1604   1.083       .  S
C1594      C1595   1.403       .  A
C1595      H1605   1.084       .  S
C1596      C1597   1.406       .  A
C1597      H1606   1.084       .  S
C1598      C1599   1.408       .  A
C1598      H1607   1.084       .  S
C1600      H1608   1.084       .  S
C1609      C1610   1.400       .  A
C1609      C1614   1.403       .  A
C1609      H1625   1.084       .  S
C1610      C1611   1.404       .  A
C1610      H1626   1.084       .  S
C1611      C1621   1.405       .  A
C1612      C1618   1.411       .  A
C1612      C1613   1.414       .  A
C1613      C1615   1.412       .  A
C1614      C1622   1.404       .  A
C1615      C1624   1.406       .  A
C1615      C1616   1.404       .  A
C1616      C1617   1.401       .  A
C1616      H1627   1.083       .  S
C1617      C1618   1.404       .  A
C1617      H1628   1.083       .  S
C1618      C1619   1.406       .  A
C1619      C1620   1.408       .  A
C1619      H1629   1.084       .  S
C1621      H1630   1.084       .  S
C1622      H1631   1.084       .  S
C1623      C1624   1.406       .  A
C1624      H1632   1.084       .  S
C1633      C1634   1.401       .  A
C1633      C1638   1.404       .  A
C1633      H1649   1.084       .  S
C1634      C1635   1.404       .  A
C1634      H1650   1.084       .  S
C1635      C1645   1.406       .  A
C1635      C1636   1.411       .  A
C1636      C1637   1.415       .  A
C1637      C1638   1.412       .  A
C1638      C1646   1.405       .  A
C1639      C1648   1.405       .  A
C1639      C1640   1.403       .  A
C1640      C1641   1.400       .  A
C1640      H1651   1.083       .  S
C1641      C1642   1.404       .  A
C1641      H1652   1.083       .  S
C1642      C1643   1.405       .  A
C1643      C1644   1.407       .  A
C1643      H1653   1.084       .  S
C1645      H1654   1.084       .  S
C1646      C1647   1.406   1_655  A
C1646      H1655   1.084       .  S
C1648      H1656   1.084       .  S
C1657      C1658   1.400       .  A
C1657      C1662   1.404       .  A
C1657      H1673   1.084       .  S
C1658      C1659   1.404       .  A
C1658      H1674   1.084       .  S
C1659      C1669   1.405       .  A
C1659      C1660   1.412   1_655  A
C1660      C1661   1.413       .  A
C1661      C1662   1.411   1_455  A
C1662      C1670   1.403       .  A
C1663      C1672   1.404       .  A
C1663      C1664   1.403       .  A
C1664      C1665   1.399       .  A
C1664      H1675   1.083       .  S
C1665      C1666   1.403       .  A
C1665      H1676   1.084       .  S
C1666      C1667   1.402       .  A
C1667      C1668   1.406       .  A
C1667      H1677   1.084       .  S
C1669      H1678   1.084       .  S
C1670      C1671   1.407   1_655  A
C1670      H1679   1.083       .  S
C1672      H1680   1.084       .  S
C1681      C1682   1.402       .  A
C1681      C1686   1.405       .  A
C1681      H1697   1.084       .  S
C1682      C1683   1.405       .  A
C1682      H1698   1.083       .  S
C1683      C1693   1.410       .  A
C1684      C1690   1.410       .  A
C1684      C1685   1.414       .  A
C1685      C1687   1.413       .  A
C1686      C1694   1.406       .  A
C1687      C1696   1.402       .  A
C1687      C1688   1.402       .  A
C1688      C1689   1.397       .  A
C1688      H1699   1.084       .  S
C1689      C1690   1.403       .  A
C1689      H1700   1.084       .  S
C1690      C1691   1.401       .  A
C1691      C1692   1.407       .  A
C1691      H1701   1.084       .  S
C1693      H1702   1.084       .  S
C1694      H1703   1.084       .  S
C1695      C1696   1.403       .  A
C1696      H1704   1.084       .  S
C1705      C1706   1.401       .  A
C1705      C1710   1.404       .  A
C1705      H1721   1.083       .  S
C1706      C1707   1.404       .  A
C1706      H1722   1.083       .  S
C1707      C1717   1.407       .  A
C1707      C1708   1.412       .  A
C1708      C1709   1.414       .  A
C1709      C1710   1.412       .  A
C1710      C1718   1.406       .  A
C1711      C1720   1.404       .  A
C1711      C1712   1.403       .  A
C1712      C1713   1.399       .  A
C1712      H1723   1.084       .  S
C1713      C1714   1.404       .  A
C1713      H1724   1.084       .  S
C1714      C1715   1.404       .  A
C1715      H1725   1.084       .  S
C1716      C1717   1.409       .  A
C1717      H1726   1.084       .  S
C1718      C1719   1.405       .  A
C1718      H1727   1.084       .  S
C1720      H1728   1.084       .  S
C1729      C1730   1.401       .  A
C1729      C1734   1.405       .  A
C1729      H1745   1.084       .  S
C1730      C1731   1.404       .  A
C1730      H1746   1.084       .  S
C1731      C1741   1.406       .  A
C1732      C1738   1.413   1_455  A
C1733      C1734   1.412       .  A
C1734      C1742   1.408       .  A
C1735      C1744   1.407       .  A
C1735      C1736   1.404       .  A
C1736      C1737   1.401       .  A
C1736      H1747   1.083       .  S
C1737      C1738   1.404       .  A
C1737      H1748   1.083       .  S
C1738      C1739   1.408       .  A
C1739      C1740   1.406   1_655  A
C1739      H1749   1.084       .  S
C1741      H1750   1.084       .  S
C1742      H1751   1.084       .  S
C1743      C1744   1.408   1_455  A
C1744      H1752   1.084       .  S
C1753      C1754   1.401       .  A
C1753      C1758   1.404       .  A
C1753      H1769   1.084       .  S
C1754      C1755   1.404       .  A
C1754      H1770   1.083       .  S
C1755      C1765   1.406       .  A
C1756      C1762   1.412   1_455  A
C1756      C1757   1.413       .  A
C1757      C1759   1.411   1_455  A
C1758      C1766   1.406       .  A
C1759      C1768   1.402       .  A
C1759      C1760   1.403       .  A
C1760      C1761   1.398       .  A
C1760      H1771   1.084       .  S
C1761      C1762   1.403       .  A
C1761      H1772   1.084       .  S
C1762      C1763   1.402       .  A
C1763      C1764   1.404   1_655  A
C1763      H1773   1.083       .  S
C1765      H1774   1.084       .  S
C1766      H1775   1.084       .  S
C1767      C1768   1.407   1_455  A
C1768      H1776   1.084       .  S
C1777      C1778   1.399       .  A
C1777      C1782   1.405       .  A
C1777      H1793   1.085       .  S
C1778      C1779   1.403       .  A
C1778      H1794   1.083       .  S
C1779      C1789   1.405       .  A
C1779      C1780   1.411       .  A
C1780      C1781   1.416       .  A
C1781      C1782   1.410       .  A
C1782      C1790   1.405       .  A
C1783      C1792   1.408       .  A
C1783      C1784   1.405       .  A
C1784      C1785   1.402       .  A
C1784      H1795   1.083       .  S
C1785      C1786   1.404       .  A
C1785      H1796   1.083       .  S
C1786      C1787   1.408       .  A
C1787      H1797   1.084       .  S
C1788      C1789   1.407       .  A
C1789      H1798   1.084       .  S
C1790      C1791   1.415       .  A
C1790      H1799   1.079       .  S
C1792      H1800   1.084       .  S
C1801      C1802   1.401       .  A
C1801      C1806   1.404       .  A
C1801      H1817   1.084       .  S
C1802      C1803   1.404       .  A
C1802      H1818   1.084       .  S
C1803      C1813   1.406       .  A
C1804      C1810   1.412       .  A
C1804      C1805   1.416       .  A
C1805      C1807   1.411       .  A
C1806      C1814   1.406       .  A
C1807      C1816   1.409       .  A
C1807      C1808   1.405       .  A
C1808      C1809   1.402       .  A
C1808      H1819   1.083       .  S
C1809      C1810   1.405       .  A
C1809      H1820   1.083       .  S
C1810      C1811   1.409       .  A
C1811      H1821   1.082       .  S
C1812      C1813   1.408       .  A
C1813      H1822   1.084       .  S
C1814      C1815   1.407       .  A
C1814      H1823   1.080       .  S
C1816      H1824   1.084       .  S
C1825      C1826   1.398       .  A
C1825      C1830   1.403       .  A
C1825      H1841   1.084       .  S
C1826      C1827   1.403       .  A
C1826      H1842   1.084       .  S
C1827      C1837   1.404       .  A
C1827      C1828   1.412       .  A
C1828      C2538   1.412       .  A
C1828      C1829   1.418       .  A
C1829      C2535   1.414       .  A
C1829      C1830   1.410       .  A
C1830      C1838   1.402       .  A
C1831      C2533   1.413   1_545  A
C1831      C2544   1.412       .  A
C1831      C1832   1.405       .  A
C1832      C1833   1.403       .  A
C1832      H1843   1.083       .  S
C1833      C1834   1.405       .  A
C1833      H1844   1.083       .  S
C1834      C2532   1.413   1_545  A
C1834      C1835   1.410       .  A
C1835      C1836   1.407   1_545  A
C1835      H1845   1.084       .  S
C1836      C2541   1.407       .  A
C1837      C2540   1.405       .  A
C1837      H1846   1.084       .  S
C1838      C1839   1.408       .  A
C1838      H1847   1.084       .  S
C1839      C1840   1.409       .  A
C1840      C2535   1.415       .  A
C1840      H2552   1.084       .  S
H1848      C2544   1.084       .  S
C1849      C1850   1.399       .  A
C1849      C1854   1.404       .  A
C1849      H1865   1.084       .  S
C1850      C1851   1.403       .  A
C1850      H1866   1.084       .  S
C1851      C1861   1.405       .  A
C1851      C1852   1.413       .  A
C1852      C2562   1.412       .  A
C1852      C1853   1.417       .  A
C1853      C2559   1.412       .  A
C1853      C1854   1.410       .  A
C1854      C1862   1.404       .  A
C1855      C2557   1.413       .  A
C1855      C1864   1.412       .  A
C1855      C1856   1.405   1_565  A
C1856      C1857   1.404       .  A
C1856      H1867   1.083       .  S
C1857      C1858   1.406       .  A
C1857      H1868   1.083       .  S
C1858      C2556   1.412   1_545  A
C1858      C1859   1.412       .  A
C1859      C1860   1.410   1_545  A
C1859      H1869   1.084       .  S
C1860      C2565   1.409       .  A
C1861      C2564   1.405       .  A
C1861      H1870   1.084       .  S
C1862      C1863   1.411       .  A
C1862      H1871   1.083       .  S
C1863      C2568   1.410       .  A
C1864      C2567   1.407       .  A
C1864      H1872   1.083   1_565  S
C1873      C1874   1.400       .  A
C1873      C1878   1.404       .  A
C1873      H1889   1.084       .  S
C1874      C1875   1.404       .  A
C1874      H2594   1.083       .  S
C1875      C1885   1.406       .  A
C1875      C1876   1.412       .  A
C1876      C1882   1.412   1_565  A
C1876      C1877   1.415   1_565  A
C1877      C1879   1.412       .  A
C1877      C1878   1.411   1_545  A
C1878      C1886   1.406       .  A
C1879      C1888   1.406       .  A
C1879      C1880   1.404       .  A
C1880      C1881   1.400       .  A
C1880      H1891   1.083       .  S
C1881      C1882   1.404       .  A
C1881      H1892   1.084       .  S
C1882      C1883   1.405       .  A
C1883      C1884   1.405   1_545  A
C1883      H1893   1.084       .  S
C1884      C1885   1.405       .  A
C1885      H1894   1.084       .  S
C1886      C1887   1.409   1_565  A
C1886      H1895   1.084       .  S
C1887      C1888   1.409       .  A
C1888      H1896   1.084       .  S
H1890      C2578   1.083       .  S
C1897      C1898   1.400       .  A
C1897      C1902   1.404       .  A
C1897      H1913   1.084       .  S
C1898      C1899   1.404       .  A
C1898      H1914   1.084       .  S
C1899      C1909   1.404       .  A
C1899      C1900   1.411       .  A
C1900      C1906   1.412   1_565  A
C1900      C1901   1.414       .  A
C1901      C1903   1.412   1_565  A
C1901      C1902   1.412       .  A
C1902      C1910   1.405       .  A
C1903      C1912   1.406       .  A
C1903      C1904   1.404       .  A
C1904      C1905   1.400       .  A
C1904      H1915   1.083       .  S
C1905      C1906   1.404       .  A
C1905      H1916   1.083       .  S
C1906      C1907   1.406       .  A
C1907      C1908   1.407   1_545  A
C1907      H1917   1.084       .  S
C1908      C1909   1.408       .  A
C1909      H1918   1.084       .  S
C1910      C1911   1.407   1_565  A
C1910      H1919   1.084       .  S
C1911      C1912   1.407       .  A
C1912      H1920   1.084       .  S
C1921      C1922   1.401       .  A
C1921      C1926   1.404       .  A
C1921      H1937   1.083       .  S
C1922      C1923   1.404       .  A
C1922      H1938   1.083       .  S
C1923      C1933   1.408       .  A
C1923      C2628   1.413   1_545  A
C1924      C2627   1.412       .  A
C1924      C1930   1.412       .  A
C1924      C1925   1.415       .  A
C1925      C1927   1.410       .  A
C1925      C2630   1.412       .  A
C1926      C2629   1.412   1_545  A
C1926      C1934   1.407       .  A
C1927      C1936   1.402       .  A
C1927      C1928   1.404       .  A
C1928      C1929   1.398       .  A
C1928      H1939   1.084       .  S
C1929      C1930   1.402       .  A
C1929      H1940   1.084       .  S
C1930      C1931   1.402       .  A
C1931      C1932   1.403       .  A
C1931      H1941   1.085       .  S
C1932      C2637   1.406       .  A
C1933      C2636   1.405       .  A
C1933      H1942   1.084       .  S
C1934      C2639   1.406   1_545  A
C1934      H1943   1.084       .  S
C1935      C2638   1.411       .  A
C1935      C1936   1.410       .  A
C1936      H1944   1.083       .  S
C1945      C1946   1.396       .  A
C1945      C1950   1.401       .  A
C1945      H1961   1.084       .  S
C1946      C1947   1.404       .  A
C1946      H1962   1.084       .  S
C1947      C1957   1.399       .  A
C1947      C1948   1.406       .  A
C1948      C1954   1.411       .  A
C1948      C1949   1.416       .  A
C1949      C2655   1.410       .  A
C1949      C1950   1.411       .  A
C1950      C1958   1.401       .  A
C1951      C2653   1.409       .  A
C1951      C1960   1.414       .  A
C1951      C1952   1.408       .  A
C1952      C1953   1.408       .  A
C1952      H1963   1.083       .  S
C1953      C2658   1.407       .  A
C1953      H1964   1.083       .  S
C1954      C2657   1.406       .  A
C1954      C1955   1.415       .  A
C1955      C1956   1.415       .  A
C1955      H2669   1.081       .  S
C1956      C1957   1.416       .  A
C1957      H1966   1.079       .  S
C1958      C1959   1.407       .  A
C1958      H1967   1.084       .  S
C1959      C2664   1.414       .  A
C1960      C2663   1.416       .  A
C1960      H1968   1.083       .  S
H1965      C2659   1.081       .  S
C1969      C1970   1.398       .  A
C1969      C1974   1.403   1_565  A
C1969      H1985   1.084       .  S
C1970      C1971   1.403   1_565  A
C1970      H1986   1.084       .  S
C1971      C1981   1.403       .  A
C1971      C1972   1.411       .  A
C1972      C1978   1.412       .  A
C1972      C1973   1.413       .  A
C1973      C1975   1.412       .  A
C1973      C1974   1.411       .  A
C1974      C1982   1.402       .  A
C1975      C1984   1.405       .  A
C1975      C1976   1.404       .  A
C1976      C1977   1.401       .  A
C1976      H1987   1.084       .  S
C1977      C1978   1.404       .  A
C1977      H1988   1.083       .  S
C1978      C1979   1.406       .  A
C1979      C1980   1.407       .  A
C1979      H1989   1.084       .  S
C1980      C1981   1.407       .  A
C1981      H1990   1.084   1_545  S
C1982      C1983   1.407       .  A
C1982      H1991   1.084       .  S
C1983      C1984   1.407       .  A
C1984      H1992   1.084       .  S
C1993      C1994   1.400       .  A
C1993      C1998   1.404       .  A
C1993      H2009   1.083       .  S
C1994      C1995   1.403       .  A
C1994      H2010   1.083       .  S
C1995      C2005   1.405       .  A
C1995      C1996   1.412       .  A
C1996      C2002   1.411       .  A
C1996      C1997   1.413       .  A
C1997      C1999   1.411       .  A
C1997      C1998   1.412       .  A
C1998      C2006   1.405       .  A
C1999      C2008   1.404       .  A
C1999      C2000   1.404   1_545  A
C2000      C2001   1.399       .  A
C2000      H2715   1.084       .  S
C2001      C2002   1.403   1_565  A
C2001      H2716   1.084       .  S
C2002      C2003   1.403       .  A
C2003      C2004   1.407       .  A
C2003      H2013   1.084       .  S
C2004      C2005   1.406       .  A
C2005      H2014   1.084       .  S
C2006      C2007   1.407       .  A
C2006      H2015   1.084       .  S
C2007      C2008   1.408       .  A
C2008      H2016   1.084   1_545  S
H2011      C2704   1.084       .  S
H2012      C2705   1.084       .  S
C2017      C2018   1.400       .  A
C2017      C2022   1.404       .  A
C2017      H2033   1.083       .  S
C2018      C2019   1.404       .  A
C2018      H2034   1.083       .  S
C2019      C2029   1.405       .  A
C2019      C2020   1.411       .  A
C2020      C2730   1.411       .  A
C2020      C2725   1.413       .  A
C2021      C2724   1.414       .  A
C2021      C2023   1.412       .  A
C2021      C2726   1.413       .  A
C2022      C2725   1.412       .  A
C2022      C2030   1.405       .  A
C2023      C2032   1.403   1_545  A
C2023      C2024   1.403   1_545  A
C2024      C2025   1.399       .  A
C2024      H2035   1.084       .  S
C2025      C2026   1.404   1_565  A
C2025      H2036   1.084       .  S
C2026      C2724   1.411       .  A
C2026      C2027   1.403       .  A
C2027      C2732   1.408       .  A
C2027      H2037   1.084   1_545  S
C2028      C2731   1.407       .  A
C2028      C2029   1.408       .  A
C2029      H2038   1.084       .  S
C2030      C2031   1.405       .  A
C2030      H2039   1.084       .  S
C2031      C2736   1.404       .  A
C2032      C2735   1.403   1_565  A
C2032      H2040   1.084       .  S
C2041      C2042   1.399       .  A
C2041      C2046   1.403       .  A
C2041      H2057   1.084       .  S
C2042      C2043   1.404       .  A
C2042      H2058   1.084       .  S
C2043      C2053   1.404       .  A
C2043      C2044   1.411       .  A
C2044      C2754   1.411       .  A
C2044      C2749   1.412       .  A
C2045      C2748   1.412       .  A
C2045      C2047   1.412       .  A
C2045      C2750   1.412       .  A
C2046      C2749   1.412       .  A
C2046      C2054   1.403       .  A
C2047      C2056   1.403       .  A
C2047      C2048   1.403       .  A
C2048      C2049   1.399       .  A
C2048      H2059   1.084       .  S
C2049      C2050   1.404       .  A
C2049      H2060   1.084       .  S
C2050      C2748   1.412       .  A
C2050      C2051   1.403       .  A
C2051      C2756   1.407       .  A
C2051      H2061   1.084       .  S
C2052      C2755   1.407       .  A
C2052      C2053   1.408       .  A
C2053      H2062   1.084       .  S
C2054      C2055   1.405       .  A
C2054      H2063   1.084       .  S
C2055      C2760   1.405       .  A
C2056      C2759   1.404       .  A
C2056      H2064   1.084       .  S
C2065      C2066   1.399       .  A
C2065      C2070   1.403       .  A
C2065      H2081   1.083       .  S
C2066      C2067   1.404       .  A
C2066      H2082   1.084       .  S
C2067      C2077   1.403       .  A
C2067      C2068   1.411       .  A
C2068      C2074   1.412       .  A
C2068      C2069   1.412       .  A
C2069      C2071   1.411       .  A
C2069      C2070   1.412       .  A
C2070      C2078   1.404       .  A
C2071      C2080   1.401       .  A
C2071      C2776   1.403   1_545  A
C2072      C2775   1.403       .  A
C2072      C2073   1.398       .  A
C2072      H2083   1.084       .  S
C2073      C2778   1.403       .  A
C2073      H2084   1.084       .  S
C2074      C2777   1.403   1_545  A
C2074      C2779   1.403       .  A
C2075      C2778   1.401       .  A
C2075      C2780   1.406       .  A
C2075      H2085   1.084       .  S
C2076      C2779   1.406       .  A
C2076      C2077   1.405       .  A
C2077      H2086   1.084       .  S
C2078      C2079   1.405       .  A
C2078      H2087   1.084       .  S
C2079      C2080   1.405       .  A
C2080      H2088   1.084   1_545  S
C2089      C2090   1.399       .  A
C2089      C2094   1.404       .  A
C2089      H2105   1.084       .  S
C2090      C2091   1.403       .  A
C2090      H2106   1.084       .  S
C2091      C2101   1.404       .  A
C2091      C2796   1.412       .  A
C2092      C2795   1.412       .  A
C2092      C2098   1.413       .  A
C2092      C2093   1.413       .  A
C2093      C2095   1.411       .  A
C2093      C2798   1.412       .  A
C2094      C2797   1.411       .  A
C2094      C2102   1.404       .  A
C2095      C2104   1.405       .  A
C2095      C2096   1.404       .  A
C2096      C2097   1.400       .  A
C2096      H2107   1.084       .  S
C2097      C2098   1.404       .  A
C2097      H2108   1.083       .  S
C2098      C2099   1.405       .  A
C2099      C2100   1.405       .  A
C2099      H2109   1.084       .  S
C2100      C2805   1.403       .  A
C2101      C2804   1.404       .  A
C2101      H2110   1.084       .  S
C2102      C2807   1.408       .  A
C2102      H2111   1.084       .  S
C2103      C2806   1.407       .  A
C2103      C2104   1.408       .  A
C2104      H2112   1.084       .  S
O2113      V2121   1.899       .  S
O2113      C2123   1.265       .  A
O2115      V2121   1.903       .  S
O2116      C2126   1.265       .  A
O2117      V2122   1.905   1_655  S
O2118      C2125   1.265       .  A
O2119      V2122   1.904   1_655  S
O2119      C2124   1.265       .  A
C2123      C2756   1.480       .  S
C2124      C2780   1.479       .  S
C2125      C2807   1.482       .  S
C2126      C2732   1.484       .  S
C2127      C2804   1.480       .  S
C2127      C2128   1.415   1_554  A
C2127      C2132   1.403       .  A
C2128      C2708   1.488       .  S
C2128      C2129   1.408       .  A
C2129      C2130   1.404       .  A
C2129      H2134   1.084       .  S
C2130      C2687   1.483       .  S
C2130      C2131   1.412   1_556  A
C2131      C2783   1.481       .  S
C2131      C2132   1.404       .  A
C2132      H2133   1.085       .  S
C2135      C2663   1.502       .  S
C2135      C2136   1.419       .  A
C2135      C2140   1.417       .  A
C2136      C2759   1.479       .  S
C2137      H2142   1.085       .  S
C2138      C2735   1.480       .  S
C2138      C2139   1.410       .  A
C2139      C2636   1.486       .  S
C2139      C2140   1.408       .  A
C2140      H2141   1.084       .  S
O2143      V2151   1.899   1_545  S
O2145      V2151   1.903       .  S
O2147      V2152   1.908   1_655  S
O2147      C2156   1.267       .  A
O2148      C2155   1.267       .  A
O2149      V2152   1.898   1_655  S
O2149      C2154   1.264       .  A
O2150      C2153   1.265       .  A
C2153      C2711   1.481       .  S
C2154      C2591   1.486       .  S
C2155      C2615   1.488       .  S
C2156      C2684   1.485       .  S
C2157      C2564   1.487       .  S
C2157      C2158   1.415       .  A
C2157      C2162   1.415       .  A
C2158      C2612   1.488       .  S
C2158      C2159   1.403       .  A
C2159      C2160   1.402       .  A
C2159      H2164   1.085       .  S
C2160      C2588   1.480       .  S
C2160      C2161   1.413       .  A
C2161      C2540   1.493       .  S
C2161      C2162   1.413       .  A
C2162      H2163   1.084       .  S
C2165      C2519   1.491       .  S
C2165      C2166   1.417       .  A
C2165      C2170   1.409       .  A
C2166      C2468   1.486       .  S
C2166      C2167   1.405       .  A
C2167      C2168   1.405       .  A
C2167      H2172   1.085       .  S
C2168      C2444   1.480       .  S
C2168      C2169   1.413       .  A
C2169      C2492   1.490       .  S
C2169      C2170   1.409       .  A
C2170      H2171   1.084       .  S
O2173      V2181   1.905       .  S
O2173      C2183   1.266   1_655  A
O2174      C2184   1.267       .  A
O2175      V2181   1.896       .  S
O2175      C2185   1.264       .  A
O2176      C2186   1.264       .  A
O2178      V2182   1.901       .  S
O2180      V2182   1.903       .  S
C2183      C2447   1.486       .  S
C2184      C2420   1.488       .  S
C2185      C2396   1.478       .  S
C2186      C2471   1.489       .  S
C2187      C2423   1.482       .  S
C2187      C2188   1.413   1_655  A
C2187      C2192   1.401       .  A
C2188      C2375   1.479       .  S
C2188      C2189   1.405       .  A
C2189      C2190   1.402       .  A
C2189      H2194   1.084       .  S
C2190      C2351   1.484       .  S
C2190      C2191   1.413   1_455  A
C2191      C2399   1.475       .  S
C2191      C2192   1.405       .  A
C2192      H2193   1.085       .  S
C2195      C2196   1.543   1_455  S
C2195      C2495   1.542       .  S
C2196      H2203   1.080       .  S
C2196      C2197   1.366       .  D
C2197      C2543   1.492       .  S
C2198      H2204   1.110       .  S
C2199      H2205   1.086       .  S
C2200      C2516   1.487   1_455  S
C2201      H2206   1.086       .  S
C2201      C2202   1.367       .  D
C2202      C2567   1.489       .  S
O2207      V2215   1.897       .  S
O2207      C2217   1.264       .  A
O2208      C2218   1.264       .  A
O2209      V2215   1.910       .  S
O2209      C2219   1.267       .  A
O2210      C2220   1.266       .  A
O2212      V2216   1.898       .  S
O2214      V2216   1.904       .  S
C2217      C2303   1.481       .  S
C2218      C2372   1.479       .  S
C2219      C2348   1.486       .  S
C2220      C2324   1.484       .  S
C2221      C2276   1.493       .  S
C2221      C2222   1.419       .  A
C2221      C2226   1.409       .  A
C2222      C2327   1.483       .  S
C2222      C2223   1.403       .  A
C2223      C2224   1.401       .  A
C2223      H2228   1.085       .  S
C2224      C2300   1.479       .  S
C2224      C2225   1.412       .  A
C2225      C2252   1.488       .  S
C2225      C2226   1.407       .  A
C2226      H2227   1.084       .  S
C2229      C2230   1.536       .  S
C2229      C2255   1.539       .  S
C2230      H2237   1.069       .  S
C2230      C2231   1.373       .  D
C2231      C2660   1.520       .  S
C2232      H2238   1.107       .  S
C2233      H2239   1.086   1_455  S
C2234      C2279   1.480       .  S
C2235      H2240   1.086       .  S
C2235      C2236   1.368       .  D
C2236      C2639   1.491       .  S
C2241      C2242   1.398       .  A
C2241      C2246   1.405       .  A
C2241      H2257   1.084       .  S
C2242      C2243   1.402       .  A
C2242      H2258   1.084       .  S
C2243      C2253   1.402       .  A
C2243      C2244   1.412       .  A
C2244      C2245   1.413       .  A
C2245      C2246   1.408       .  A
C2246      C2254   1.402       .  A
C2247      C2256   1.407       .  A
C2247      C2248   1.405       .  A
C2248      C2249   1.401       .  A
C2248      H2259   1.083       .  S
C2249      C2250   1.404       .  A
C2249      H2260   1.084       .  S
C2250      C2251   1.405       .  A
C2251      H2261   1.084       .  S
C2252      C2253   1.405       .  A
C2253      H2262   1.084       .  S
C2254      C2255   1.416       .  A
C2254      H2263   1.075       .  S
C2256      H2264   1.084       .  S
C2265      C2266   1.399       .  A
C2265      C2270   1.404       .  A
C2265      H2281   1.084       .  S
C2266      C2267   1.404       .  A
C2266      H2282   1.084       .  S
C2267      C2277   1.404       .  A
C2268      C2274   1.410       .  A
C2268      C2269   1.412       .  A
C2269      C2271   1.413       .  A
C2270      C2278   1.402       .  A
C2271      C2280   1.405       .  A
C2271      C2272   1.403       .  A
C2272      C2273   1.400       .  A
C2272      H2283   1.084       .  S
C2273      C2274   1.404       .  A
C2273      H2284   1.083       .  S
C2274      C2275   1.403       .  A
C2275      C2276   1.408       .  A
C2275      H2285   1.084       .  S
C2277      H2286   1.083       .  S
C2278      H2287   1.084       .  S
C2279      C2280   1.403       .  A
C2280      H2288   1.084       .  S
C2289      C2290   1.400       .  A
C2289      C2294   1.405       .  A
C2289      H2305   1.084       .  S
C2290      C2291   1.404       .  A
C2290      H2306   1.084       .  S
C2291      C2301   1.404       .  A
C2292      C2298   1.412       .  A
C2292      C2293   1.412       .  A
C2293      C2295   1.412       .  A
C2294      C2302   1.404       .  A
C2295      C2304   1.402       .  A
C2295      C2296   1.403       .  A
C2296      C2297   1.398       .  A
C2296      H2307   1.083       .  S
C2297      C2298   1.402       .  A
C2297      H2308   1.084       .  S
C2298      C2299   1.401       .  A
C2299      H2309   1.084       .  S
C2300      C2301   1.405       .  A
C2301      H2310   1.084       .  S
C2302      C2303   1.409       .  A
C2302      H2311   1.084       .  S
C2304      H2312   1.084       .  S
C2313      C2314   1.400       .  A
C2313      C2318   1.403       .  A
C2313      H2329   1.084       .  S
C2314      C2315   1.404       .  A
C2314      H2330   1.084       .  S
C2315      C2325   1.405       .  A
C2316      C2322   1.411       .  A
C2316      C2317   1.413       .  A
C2317      C2319   1.412       .  A
C2318      C2326   1.404       .  A
C2319      C2328   1.404       .  A
C2319      C2320   1.403       .  A
C2320      C2321   1.400       .  A
C2320      H2331   1.084       .  S
C2321      C2322   1.404       .  A
C2321      H2332   1.083       .  S
C2322      C2323   1.405       .  A
C2323      C2324   1.408       .  A
C2323      H2333   1.084       .  S
C2325      H2334   1.084       .  S
C2326      H2335   1.084       .  S
C2327      C2328   1.404       .  A
C2328      H2336   1.084       .  S
C2337      C2338   1.399       .  A
C2337      C2342   1.403       .  A
C2337      H2353   1.084       .  S
C2338      C2339   1.404       .  A
C2338      H2354   1.084       .  S
C2339      C2349   1.403       .  A
C2339      C2340   1.411       .  A
C2340      C2341   1.414   1_655  A
C2341      C2342   1.412   1_455  A
C2342      C2350   1.403       .  A
C2343      C2352   1.406       .  A
C2343      C2344   1.404       .  A
C2344      C2345   1.401       .  A
C2344      H2355   1.083       .  S
C2345      C2346   1.404       .  A
C2345      H2356   1.083       .  S
C2346      C2347   1.407       .  A
C2347      C2348   1.408       .  A
C2347      H2357   1.084       .  S
C2349      H2358   1.084       .  S
C2350      C2351   1.404   1_655  A
C2350      H2359   1.084       .  S
C2352      H2360   1.084       .  S
C2361      C2362   1.397       .  A
C2361      C2366   1.402       .  A
C2361      H2377   1.084       .  S
C2362      C2363   1.403       .  A
C2362      H2378   1.083       .  S
C2363      C2373   1.401       .  A
C2363      C2364   1.412   1_655  A
C2364      C2365   1.411       .  A
C2365      C2366   1.411   1_455  A
C2366      C2374   1.398       .  A
C2367      C2376   1.404       .  A
C2367      C2368   1.404       .  A
C2368      C2369   1.400       .  A
C2368      H2379   1.084       .  S
C2369      C2370   1.404       .  A
C2369      H2380   1.084       .  S
C2370      C2371   1.404       .  A
C2371      C2372   1.408       .  A
C2371      H2381   1.084       .  S
C2373      H2382   1.084       .  S
C2374      C2375   1.403   1_655  A
C2374      H2383   1.084       .  S
C2376      H2384   1.084       .  S
C2385      C2386   1.398       .  A
C2385      C2390   1.402       .  A
C2385      H2401   1.084       .  S
C2386      C2387   1.403       .  A
C2386      H2402   1.084       .  S
C2387      C2397   1.402       .  A
C2388      C2394   1.411       .  A
C2388      C2389   1.411       .  A
C2389      C2391   1.413       .  A
C2390      C2398   1.399       .  A
C2391      C2400   1.404       .  A
C2391      C2392   1.403       .  A
C2392      C2393   1.400       .  A
C2392      H2403   1.084       .  S
C2393      C2394   1.404       .  A
C2393      H2404   1.084       .  S
C2394      C2395   1.403       .  A
C2395      C2396   1.408       .  A
C2395      H2405   1.084       .  S
C2397      H2406   1.084       .  S
C2398      H2407   1.085       .  S
C2399      C2400   1.404       .  A
C2400      H2408   1.084       .  S
C2409      C2410   1.401       .  A
C2409      C2414   1.404       .  A
C2409      H2425   1.083       .  S
C2410      C2411   1.405       .  A
C2410      H2426   1.083       .  S
C2411      C2421   1.407       .  A
C2411      C2412   1.411       .  A
C2412      C2413   1.414       .  A
C2413      C2414   1.413       .  A
C2414      C2422   1.406       .  A
C2415      C2424   1.404       .  A
C2415      C2416   1.403       .  A
C2416      C2417   1.399       .  A
C2416      H2427   1.084       .  S
C2417      C2418   1.404       .  A
C2417      H2428   1.083       .  S
C2418      C2419   1.405       .  A
C2419      H2429   1.084       .  S
C2420      C2421   1.409       .  A
C2421      H2430   1.084       .  S
C2422      C2423   1.405       .  A
C2422      H2431   1.084       .  S
C2424      H2432   1.084       .  S
C2433      C2434   1.400       .  A
C2433      C2438   1.404       .  A
C2433      H2449   1.084       .  S
C2434      C2435   1.404       .  A
C2434      H2450   1.084       .  S
C2435      C2445   1.405       .  A
C2436      C2442   1.413   1_455  A
C2437      C2438   1.411       .  A
C2438      C2446   1.406       .  A
C2439      C2448   1.405       .  A
C2439      C2440   1.404       .  A
C2440      C2441   1.399       .  A
C2440      H2451   1.083       .  S
C2441      C2442   1.403       .  A
C2441      H2452   1.083       .  S
C2442      C2443   1.404       .  A
C2443      C2444   1.403   1_655  A
C2443      H2453   1.084       .  S
C2445      H2454   1.084       .  S
C2446      H2455   1.084       .  S
C2447      C2448   1.408   1_455  A
C2448      H2456   1.084       .  S
C2457      C2458   1.400       .  A
C2457      C2462   1.404       .  A
C2457      H2473   1.083       .  S
C2458      C2459   1.403       .  A
C2458      H2474   1.083       .  S
C2459      C2469   1.405       .  A
C2460      C2466   1.412       .  A
C2460      C2461   1.416       .  A
C2461      C2463   1.411       .  A
C2462      C2470   1.406       .  A
C2463      C2472   1.407       .  A
C2463      C2464   1.405       .  A
C2464      C2465   1.402       .  A
C2464      H2475   1.084       .  S
C2465      C2466   1.404       .  A
C2465      H2476   1.084       .  S
C2466      C2467   1.407       .  A
C2467      C2468   1.407   1_655  A
C2467      H2477   1.084       .  S
C2469      H2478   1.084       .  S
C2470      H2479   1.084       .  S
C2471      C2472   1.411       .  A
C2472      H2480   1.084       .  S
C2481      C2482   1.398       .  A
C2481      C2486   1.405       .  A
C2481      H2497   1.083       .  S
C2482      C2483   1.402       .  A
C2482      H2498   1.084       .  S
C2483      C2493   1.403       .  A
C2483      C2484   1.412   1_655  A
C2484      C2485   1.417       .  A
C2485      C2486   1.409   1_455  A
C2486      C2494   1.405       .  A
C2487      C2496   1.410       .  A
C2487      C2488   1.406       .  A
C2488      C2489   1.404       .  A
C2488      H2499   1.083       .  S
C2489      C2490   1.405       .  A
C2489      H2500   1.083       .  S
C2490      C2491   1.411       .  A
C2491      H2501   1.084       .  S
C2492      C2493   1.404   1_455  A
C2493      H2502   1.085       .  S
C2494      C2495   1.415   1_655  A
C2494      H2503   1.074       .  S
C2496      H2504   1.084       .  S
C2505      C2506   1.400       .  A
C2505      C2510   1.404       .  A
C2505      H2521   1.084       .  S
C2506      C2507   1.404       .  A
C2506      H2522   1.083       .  S
C2507      C2517   1.405       .  A
C2508      C2514   1.412       .  A
C2508      C2509   1.415       .  A
C2509      C2511   1.411       .  A
C2510      C2518   1.404       .  A
C2511      C2520   1.406       .  A
C2511      C2512   1.404       .  A
C2512      C2513   1.401       .  A
C2512      H2523   1.084       .  S
C2513      C2514   1.404       .  A
C2513      H2524   1.084       .  S
C2514      C2515   1.407       .  A
C2515      H2525   1.081       .  S
C2516      C2517   1.407       .  A
C2517      H2526   1.084       .  S
C2518      C2519   1.407   1_655  A
C2518      H2527   1.083       .  S
C2520      H2528   1.084       .  S
C2529      C2530   1.400       .  A
C2529      C2534   1.404       .  A
C2529      H2545   1.084       .  S
C2530      C2531   1.403       .  A
C2530      H2546   1.084       .  S
C2531      C2541   1.404       .  A
C2531      C2532   1.412       .  A
C2532      C2533   1.417       .  A
C2533      C2534   1.411       .  A
C2534      C2542   1.405       .  A
C2535      C2536   1.406       .  A
C2536      C2537   1.405       .  A
C2536      H2547   1.083       .  S
C2537      C2538   1.406       .  A
C2537      H2548   1.083       .  S
C2538      C2539   1.413       .  A
C2539      C2540   1.409       .  A
C2539      H2549   1.084       .  S
C2541      H2550   1.084       .  S
C2542      C2543   1.409       .  A
C2542      H2551   1.085       .  S
C2543      C2544   1.407   1_565  A
C2553      C2554   1.400       .  A
C2553      C2558   1.404       .  A
C2553      H2569   1.083       .  S
C2554      C2555   1.404       .  A
C2554      H2570   1.084       .  S
C2555      C2565   1.406       .  A
C2555      C2556   1.411       .  A
C2556      C2557   1.418       .  A
C2557      C2558   1.412       .  A
C2558      C2566   1.406       .  A
C2559      C2568   1.412       .  A
C2559      C2560   1.405       .  A
C2560      C2561   1.404       .  A
C2560      H2571   1.083       .  S
C2561      C2562   1.405       .  A
C2561      H2572   1.083       .  S
C2562      C2563   1.410       .  A
C2563      C2564   1.407       .  A
C2563      H2573   1.084       .  S
C2565      H2574   1.084       .  S
C2566      C2567   1.406       .  A
C2566      H2575   1.085       .  S
C2568      H2576   1.080       .  S
C2577      C2578   1.400       .  A
C2577      C2582   1.404       .  A
C2577      H2593   1.083       .  S
C2578      C2579   1.403       .  A
C2579      C2589   1.404       .  A
C2579      C2580   1.412       .  A
C2580      C2586   1.413       .  A
C2580      C2581   1.414       .  A
C2581      C2583   1.411       .  A
C2581      C2582   1.412       .  A
C2582      C2590   1.406       .  A
C2583      C2592   1.404       .  A
C2583      C2584   1.404       .  A
C2584      C2585   1.400       .  A
C2584      H2595   1.084       .  S
C2585      C2586   1.403       .  A
C2585      H2596   1.084       .  S
C2586      C2587   1.405       .  A
C2587      C2588   1.403       .  A
C2587      H2597   1.084       .  S
C2588      C2589   1.404       .  A
C2589      H2598   1.084       .  S
C2590      C2591   1.408       .  A
C2590      H2599   1.084       .  S
C2591      C2592   1.409       .  A
C2592      H2600   1.084       .  S
C2601      C2602   1.401       .  A
C2601      C2606   1.404       .  A
C2601      H2617   1.083       .  S
C2602      C2603   1.404       .  A
C2602      H2618   1.084       .  S
C2603      C2613   1.406       .  A
C2603      C2604   1.412       .  A
C2604      C2610   1.412       .  A
C2604      C2605   1.416       .  A
C2605      C2607   1.412       .  A
C2605      C2606   1.412       .  A
C2606      C2614   1.407       .  A
C2607      C2616   1.407       .  A
C2607      C2608   1.404       .  A
C2608      C2609   1.401       .  A
C2608      H2619   1.083       .  S
C2609      C2610   1.404       .  A
C2609      H2620   1.083       .  S
C2610      C2611   1.407       .  A
C2611      C2612   1.406       .  A
C2611      H2621   1.084       .  S
C2612      C2613   1.406       .  A
C2613      H2622   1.084       .  S
C2614      C2615   1.409       .  A
C2614      H2623   1.084       .  S
C2615      C2616   1.409       .  A
C2616      H2624   1.084       .  S
C2625      C2626   1.403       .  A
C2625      C2630   1.405       .  A
C2625      H2641   1.083       .  S
C2626      C2627   1.405       .  A
C2626      H2642   1.083       .  S
C2627      C2637   1.410       .  A
C2628      C2634   1.412       .  A
C2628      C2629   1.416       .  A
C2629      C2631   1.411       .  A
C2630      C2638   1.410       .  A
C2631      C2640   1.407       .  A
C2631      C2632   1.405       .  A
C2632      C2633   1.401       .  A
C2632      H2643   1.084       .  S
C2633      C2634   1.404       .  A
C2633      H2644   1.084       .  S
C2634      C2635   1.406       .  A
C2635      C2636   1.406   1_565  A
C2635      H2645   1.084       .  S
C2637      H2646   1.084       .  S
C2638      H2647   1.083       .  S
C2639      C2640   1.409       .  A
C2640      H2648   1.084       .  S
C2649      C2650   1.394       .  A
C2649      C2654   1.400       .  A
C2649      H2665   1.084       .  S
C2650      C2651   1.404       .  A
C2650      H2666   1.084       .  S
C2651      C2661   1.396       .  A
C2651      C2652   1.405       .  A
C2652      C2658   1.412   1_565  A
C2652      C2653   1.417   1_565  A
C2653      C2654   1.412   1_545  A
C2654      C2662   1.400       .  A
C2655      C2664   1.410       .  A
C2655      C2656   1.406       .  A
C2656      C2657   1.405       .  A
C2656      H2667   1.083       .  S
C2657      H2668   1.083       .  S
C2658      C2659   1.419       .  A
C2659      C2660   1.417   1_545  A
C2660      C2661   1.417       .  A
C2661      H2670   1.077       .  S
C2662      C2663   1.405   1_565  A
C2662      H2671   1.084       .  S
C2664      H2672   1.083       .  S
C2673      C2674   1.399       .  A
C2673      C2678   1.403       .  A
C2673      H2689   1.084       .  S
C2674      C2675   1.404       .  A
C2674      H2690   1.084       .  S
C2675      C2685   1.404       .  A
C2675      C2676   1.411       .  A
C2676      C2682   1.412       .  A
C2676      C2677   1.414       .  A
C2677      C2679   1.412       .  A
C2677      C2678   1.412       .  A
C2678      C2686   1.403       .  A
C2679      C2688   1.406       .  A
C2679      C2680   1.404       .  A
C2680      C2681   1.401       .  A
C2680      H2691   1.083       .  S
C2681      C2682   1.404       .  A
C2681      H2692   1.083       .  S
C2682      C2683   1.407       .  A
C2683      C2684   1.408       .  A
C2683      H2693   1.084       .  S
C2684      C2685   1.408       .  A
C2685      H2694   1.084       .  S
C2686      C2687   1.405       .  A
C2686      H2695   1.084       .  S
C2687      C2688   1.405       .  A
C2688      H2696   1.084       .  S
C2697      C2698   1.399       .  A
C2697      C2702   1.404       .  A
C2697      H2713   1.084       .  S
C2698      C2699   1.403       .  A
C2698      H2714   1.084       .  S
C2699      C2709   1.403       .  A
C2699      C2700   1.412       .  A
C2700      C2706   1.411       .  A
C2700      C2701   1.413       .  A
C2701      C2703   1.412       .  A
C2701      C2702   1.411       .  A
C2702      C2710   1.403       .  A
C2703      C2712   1.405       .  A
C2703      C2704   1.404       .  A
C2704      C2705   1.400       .  A
C2705      C2706   1.404       .  A
C2706      C2707   1.404       .  A
C2707      C2708   1.407       .  A
C2707      H2717   1.084       .  S
C2708      C2709   1.406       .  A
C2709      H2718   1.084       .  S
C2710      C2711   1.407       .  A
C2710      H2719   1.084       .  S
C2711      C2712   1.407       .  A
C2712      H2720   1.084       .  S
C2721      C2722   1.401       .  A
C2721      C2726   1.404       .  A
C2721      H2737   1.083       .  S
C2722      C2723   1.405       .  A
C2722      H2738   1.083       .  S
C2723      C2733   1.407       .  A
C2723      C2724   1.412       .  A
C2725      C2727   1.411       .  A
C2726      C2734   1.406       .  A
C2727      C2736   1.401       .  A
C2727      C2728   1.403       .  A
C2728      C2729   1.398       .  A
C2728      H2739   1.084       .  S
C2729      C2730   1.404       .  A
C2729      H2740   1.084       .  S
C2730      C2731   1.403       .  A
C2731      H2741   1.084       .  S
C2732      C2733   1.408       .  A
C2733      H2742   1.084       .  S
C2734      C2735   1.404       .  A
C2734      H2743   1.084       .  S
C2736      H2744   1.083       .  S
C2745      C2746   1.399       .  A
C2745      C2750   1.403   1_565  A
C2745      H2761   1.084       .  S
C2746      C2747   1.404   1_565  A
C2746      H2762   1.084       .  S
C2747      C2757   1.403       .  A
C2747      C2748   1.411       .  A
C2749      C2751   1.412       .  A
C2750      C2758   1.402       .  A
C2751      C2760   1.403       .  A
C2751      C2752   1.403       .  A
C2752      C2753   1.399       .  A
C2752      H2763   1.084       .  S
C2753      C2754   1.404       .  A
C2753      H2764   1.084       .  S
C2754      C2755   1.404       .  A
C2755      H2765   1.084       .  S
C2756      C2757   1.407       .  A
C2757      H2766   1.084   1_545  S
C2758      C2759   1.404       .  A
C2758      H2767   1.084   1_545  S
C2760      H2768   1.084       .  S
C2769      C2770   1.400       .  A
C2769      C2774   1.404       .  A
C2769      H2785   1.084       .  S
C2770      C2771   1.404       .  A
C2770      H2786   1.084       .  S
C2771      C2781   1.406       .  A
C2771      C2772   1.412       .  A
C2772      C2778   1.411       .  A
C2772      C2773   1.412       .  A
C2773      C2775   1.412       .  A
C2773      C2774   1.412       .  A
C2774      C2782   1.404       .  A
C2775      C2784   1.402       .  A
C2776      C2777   1.399       .  A
C2776      H2787   1.084       .  S
C2777      H2788   1.084       .  S
C2779      H2789   1.084   1_545  S
C2780      C2781   1.407       .  A
C2781      H2790   1.084       .  S
C2782      C2783   1.406       .  A
C2782      H2791   1.084       .  S
C2783      C2784   1.403       .  A
C2784      H2792   1.084       .  S
C2793      C2794   1.399       .  A
C2793      C2798   1.403   1_565  A
C2793      H2809   1.084       .  S
C2794      C2795   1.403   1_565  A
C2794      H2810   1.084       .  S
C2795      C2805   1.402       .  A
C2796      C2802   1.412       .  A
C2796      C2797   1.413       .  A
C2797      C2799   1.411       .  A
C2798      C2806   1.403       .  A
C2799      C2808   1.404       .  A
C2799      C2800   1.404       .  A
C2800      C2801   1.399       .  A
C2800      H2811   1.084       .  S
C2801      C2802   1.403       .  A
C2801      H2812   1.083       .  S
C2802      C2803   1.404       .  A
C2803      C2804   1.404       .  A
C2803      H2813   1.084       .  S
C2805      H2814   1.084   1_545  S
C2806      H2815   1.084   1_545  S
C2807      C2808   1.408       .  A
C2808      H2816   1.084       .  S
