geometry optimzed in LAMMPS
_audit_creation_date              2020-11-30 
_audit_creation_method            'lammps2cif' 
_symmetry_space_group_name_H-M    'P1' 
_symmetry_Int_Tables_number       1 
_symmetry_cell_setting            triclinic 
loop_ 
_symmetry_equiv_pos_as_xyz 
  x,y,z 
_cell_length_a                    35.867325286685414 
_cell_length_b                    35.72468362867452 
_cell_length_c                    25.56367148202941 
_cell_angle_alpha                 90.00202015579116 
_cell_angle_beta                  90.04222784761575 
_cell_angle_gamma                 120.13667418666364 
loop_ 
_atom_site_label 
_atom_site_type_symbol 
_atom_site_fract_x 
_atom_site_fract_y 
_atom_site_fract_z 
_atom_site_charge 
C1          C  0.76606965  0.49477534  0.50509423     0.00410
C2          C  0.72874779  0.49656236  0.00548308     0.00410
C3          C  0.46981600  0.20072597  0.00769963     0.00410
C4          C  0.47463855  0.24116548  0.00669926     0.00410
C5          C  0.72881591  0.20593330  0.99674385     0.00410
C6          C  0.76702909  0.24468805  0.49964009     0.00410
C7          C  0.50119735  0.75631772  0.99750095     0.00410
C8          C  0.49959420  0.71720946  0.99739070     0.00410
C9          C  0.22049436  0.48075034  0.50800926     0.00410
C10         C  0.25258229  0.46924126  0.00542075     0.00410
C11         C  0.21631414  0.71860493  0.49998263     0.00410
C12         C  0.25621275  0.75471151  0.00008324     0.00410
O13         O  0.91951902  0.36997998  0.34730443    -0.75450
O14         O  0.86765225  0.37811827  0.30690721    -0.54360
C15         C  0.87983561  0.35828685  0.33863150     0.78280
O16         O  0.06675221  0.59107604  0.35479826    -0.60050
O17         O  0.11642727  0.58487511  0.30588684    -0.53080
C18         C  0.10588896  0.60277780  0.34204376     0.70290
O19         O  0.92091748  0.51827709  0.36214693    -0.74610
O20         O  0.86959256  0.46097354  0.31565427    -0.55170
C21         C  0.88143741  0.48969232  0.35196408     0.76300
O22         O  0.06511272  0.44811549  0.35444045    -0.59750
O23         O  0.11627892  0.50601797  0.30876653    -0.52870
C24         C  0.10448204  0.47788474  0.34558788     0.72890
Zr25       Zr  0.99183302  0.42562150  0.32413132     2.54710
O26         O  0.98385461  0.41891017  0.41874242    -0.80320
O27         O  0.99612193  0.35989850  0.31821776    -0.93740
Zr28       Zr  0.99290748  0.53760014  0.33086569     2.64680
O29         O  0.99491910  0.53584990  0.42608594    -0.98690
O30         O  0.99377700  0.60620542  0.33057838    -0.80750
O31         O  0.95078841  0.46095277  0.32957362    -0.84110
O32         O  0.03341673  0.50193800  0.32839532    -2.18820
O33         O  0.06118662  0.44361309  0.14606423    -0.67500
O34         O  0.11252240  0.49870404  0.19471579    -0.52060
C35         C  0.10064638  0.46930579  0.15932734     0.71270
O36         O  0.92041933  0.52409056  0.15039709    -0.60410
O37         O  0.86940418  0.46729184  0.19759779    -0.52380
C38         C  0.88110215  0.49722291  0.16277587     0.73070
O39         O  0.06506521  0.59421544  0.14805849    -0.71800
O40         O  0.11463165  0.58253841  0.18995785    -0.50480
C41         C  0.10376626  0.60225410  0.15663512     0.74460
O42         O  0.91577553  0.38038621  0.13866409    -0.67130
O43         O  0.86626135  0.38604744  0.18925007    -0.54330
C44         C  0.87694376  0.37006515  0.15095176     0.72840
Zr45       Zr  0.98912035  0.42861453  0.17002396     2.77540
O46         O  0.99164024  0.43221589  0.07478029    -0.97880
O47         O  0.98209852  0.35721394  0.17080173    -0.78700
Zr48       Zr  0.99240206  0.54135951  0.17683352     2.70070
O49         O  0.99156368  0.54430649  0.08171252    -0.79950
O50         O  0.99396365  0.60989136  0.18674611    -0.99030
Zr51       Zr  0.90812219  0.44237142  0.25230044     2.21500
Zr52       Zr  0.07425364  0.52328464  0.24962638     2.11130
O53         O  0.03238368  0.50505165  0.17145589    -2.47720
O54         O  0.94906526  0.46484525  0.17350044    -0.80220
O55         O  0.03265746  0.44633510  0.24626518    -0.71940
O56         O  0.95024566  0.51954481  0.25431081    -2.32890
O57         O  0.94814723  0.40549198  0.24787142    -2.29100
O58         O  0.03513691  0.56099404  0.25348068    -0.73700
H59         H  0.05189292  0.51088581  0.35870772     0.78300
H60         H  0.93204218  0.53228296  0.25568779     0.79390
H61         H  0.05052661  0.51431462  0.14078652     0.81610
H62         H  0.92918214  0.37450972  0.24641315     0.79220
H63         H  0.97083160  0.60195731  0.30566105     0.42260
H64         H  0.01997688  0.62800235  0.20810688     0.41230
H65         H  0.98564609  0.51534614  0.07026338     0.40900
H66         H  0.01889256  0.45904217  0.06632515     0.38840
H67         H  0.00390570  0.35968113  0.19647611     0.41970
H68         H  0.97127871  0.34015418  0.29606446     0.36750
H69         H  0.98065894  0.44375186  0.42963402     0.42870
H70         H  0.01960218  0.53177637  0.43449949     0.39290
H71         H  0.99662213  0.40849129  0.06386122     0.44200
H72         H  0.98836086  0.34710564  0.35367711     0.42930
H73         H  0.00442733  0.56591216  0.43706103     0.43060
H74         H  0.00133681  0.62310881  0.15148408     0.43420
O75         O  0.45465062  0.36707704  0.15490978    -0.75450
O76         O  0.51560442  0.37965406  0.19807677    -0.54360
C77         C  0.48474238  0.35868654  0.16517999     0.78280
O78         O  0.52177341  0.58535399  0.14583806    -0.60050
O79         O  0.46370436  0.57954626  0.18880938    -0.53080
C80         C  0.49408829  0.59741942  0.15456654     0.70290
O81         O  0.59834261  0.51714726  0.14988879    -0.74610
O82         O  0.59580360  0.46334416  0.19998122    -0.55170
C83         C  0.61237596  0.49171157  0.16325152     0.76300
O84         O  0.38261233  0.43691524  0.14484625    -0.59750
O85         O  0.38545360  0.49483060  0.18550189    -0.52870
C86         C  0.36989185  0.46424999  0.15091733     0.72890
Zr87       Zr  0.43530159  0.42073611  0.17906327     2.54710
O88         O  0.43705766  0.41556202  0.08426139    -0.80320
O89         O  0.36678468  0.35347678  0.18698180    -0.93740
Zr90       Zr  0.54316222  0.53393577  0.17476529     2.64680
O91         O  0.54259422  0.53009820  0.07956251    -0.98690
O92         O  0.60970425  0.60363106  0.17565228    -0.80750
O93         O  0.51145416  0.45762404  0.17681276    -0.84110
O94         O  0.46709830  0.49690923  0.17338235    -2.18820
O95         O  0.38089521  0.44410337  0.36113560    -0.67500
O96         O  0.38468854  0.49877479  0.31063385    -0.52060
C97         C  0.36869598  0.47122510  0.34855984     0.71270
O98         O  0.59893898  0.52210498  0.36013881    -0.60410
O99         O  0.59215520  0.46261856  0.31777053    -0.52380
C100        C  0.60993231  0.49334866  0.35151011     0.73070
O101        O  0.52506594  0.59383034  0.34954824    -0.71800
O102        O  0.46646453  0.58340453  0.30242891    -0.50480
C103        C  0.49615960  0.60357340  0.33691590     0.74460
O104        O  0.45736300  0.37519460  0.36135317    -0.67130
O105        O  0.51375316  0.37975855  0.31546989    -0.54330
C106        C  0.48459658  0.36263493  0.35105416     0.72840
Zr107      Zr  0.43531137  0.42631370  0.33254566     2.77540
O108        O  0.43738868  0.42818876  0.42784877    -0.97880
O109        O  0.36815225  0.35726053  0.32998162    -0.78700
Zr110      Zr  0.54441278  0.53906880  0.32831882     2.70070
O111        O  0.54287242  0.54251313  0.42336315    -0.79950
O112        O  0.61240287  0.60689496  0.32053739    -0.99030
Zr113      Zr  0.53337929  0.44024856  0.25653085     2.21500
Zr114      Zr  0.44454490  0.51938742  0.24905569     2.11130
O115        O  0.46786920  0.50268646  0.32904277    -2.47720
O116        O  0.51176050  0.46270862  0.33304374    -0.79740
O117        O  0.41133622  0.44241413  0.25359057    -0.71940
O118        O  0.56700647  0.51729027  0.25315991    -2.32890
O119        O  0.45648826  0.40232256  0.25775717    -2.29100
O120        O  0.52168650  0.55704487  0.24971596    -0.73700
H121        H  0.45791939  0.50458819  0.14164360     0.78300
H122        H  0.59803801  0.53067037  0.25334372     0.79390
H123        H  0.45870188  0.51265548  0.35883024     0.81610
H124        H  0.44481571  0.37139305  0.25918644     0.79220
H125        H  0.62812698  0.60050701  0.20210760     0.42260
H126        H  0.60583682  0.62508352  0.29741874     0.41230
H127        H  0.52818641  0.51189788  0.43476731     0.40900
H128        H  0.44077649  0.45660895  0.43733749     0.38840
H129        H  0.34977374  0.36181564  0.30486224     0.41970
H130        H  0.37270375  0.33525637  0.21085484     0.36750
H131        H  0.46086887  0.44417756  0.07306489     0.42870
H132        H  0.51658454  0.53099795  0.06855454     0.39290
H133        H  0.40768144  0.40679175  0.43880068     0.44200
H134        H  0.36229593  0.33947150  0.15231657     0.42930
H135        H  0.56705282  0.55832580  0.06838526     0.43060
H136        H  0.61700309  0.62050128  0.35547663     0.43420
O137        O  0.58781217  0.05647089  0.13670018    -0.75450
O138        O  0.58586427  0.10798729  0.18710666    -0.54360
C139        C  0.60015008  0.09609511  0.14800420     0.78280
O140        O  0.38010242  0.90557402  0.15400142    -0.60050
O141        O  0.38970255  0.85500637  0.19575725    -0.53080
C142        C  0.37003966  0.86611288  0.16249564     0.70290
O143        O  0.44179152  0.05069679  0.15852004    -0.74610
O144        O  0.50239708  0.10356733  0.19730176    -0.55170
C145        C  0.46910095  0.09078959  0.16797969     0.76300
O146        O  0.52685708  0.91183055  0.14129362    -0.59750
O147        O  0.47180247  0.85981562  0.18998365    -0.52870
C148        C  0.49970070  0.87218249  0.15296512     0.72890
Zr149      Zr  0.54399027  0.98392649  0.17081303     2.54710
O150        O  0.54558733  0.98121673  0.07573153    -0.80320
O151        O  0.61484114  0.99053795  0.17664816    -0.93740
Zr152      Zr  0.43129789  0.97935339  0.17864649     2.64680
O153        O  0.43314620  0.98281302  0.08342442    -0.98690
O154        O  0.36010930  0.97209704  0.18032140    -0.80750
O155        O  0.50701288  0.02356985  0.17251448    -0.84110
O156        O  0.46820701  0.93999579  0.17319745    -2.18820
O157        O  0.53612493  0.91503894  0.35122108    -0.67500
O158        O  0.47934813  0.86209594  0.30632886    -0.52060
C159        C  0.50976571  0.87507290  0.34049523     0.71270
O160        O  0.45752525  0.05014115  0.36654872    -0.60410
O161        O  0.50912800  0.10293238  0.31470711    -0.52380
C162        C  0.48340839  0.08989578  0.35418325     0.73070
O163        O  0.38424726  0.90385184  0.35783464    -0.71800
O164        O  0.39477968  0.85506151  0.31194644    -0.50480
C165        C  0.37532172  0.86500108  0.34661512     0.74460
O166        O  0.60282827  0.06125410  0.34865102    -0.67130
O167        O  0.59146081  0.10992546  0.30405887    -0.54330
C168        C  0.61193393  0.10019780  0.33756497     0.72840
Zr169      Zr  0.55027178  0.98644096  0.32481635     2.77540
O170        O  0.55157132  0.98919634  0.42009470    -0.97880
O171        O  0.61982917  0.99018139  0.32026302    -0.78700
Zr172      Zr  0.43605817  0.97851959  0.33230860     2.70070
O173        O  0.43332239  0.97430264  0.42739529    -0.79950
O174        O  0.36874940  0.97946375  0.32753653    -0.99030
Zr175      Zr  0.52888220  0.06580483  0.25042349     2.21500
Zr176      Zr  0.45219813  0.89850755  0.25143476     2.11130
O177        O  0.47429055  0.94057269  0.32983745    -2.47720
O178        O  0.51215871  0.02438530  0.32892028    -0.79740
O179        O  0.52877534  0.94262837  0.24829696    -0.71940
O180        O  0.45227680  0.02143473  0.25587511    -2.32890
O181        O  0.56773720  0.02773559  0.24693487    -2.29100
O182        O  0.41305101  0.93621348  0.25520680    -0.73700
H183        H  0.45862862  0.92164226  0.14262621     0.78300
H184        H  0.43859265  0.03876718  0.25818787     0.79390
H185        H  0.46693892  0.92226514  0.36034881     0.81610
H186        H  0.59841409  0.04763015  0.24501530     0.79220
H187        H  0.36182829  0.99199188  0.20840164     0.42260
H188        H  0.35058621  0.95579599  0.30295959     0.41230
H189        H  0.46335178  0.98396754  0.43809597     0.40900
H190        H  0.52639741  0.96149139  0.43132342     0.38840
H191        H  0.61626683  0.96942313  0.29234565     0.41970
H192        H  0.63502701  0.02162666  0.18342995     0.36750
H193        H  0.52104480  0.98455197  0.06424274     0.42870
H194        H  0.43613657  0.95793374  0.07214574     0.39290
H195        H  0.57689969  0.98668988  0.43009699     0.44200
H196        H  0.62135290  0.98593177  0.14037512     0.42930
H197        H  0.40343321  0.97482980  0.07315702     0.43060
H198        H  0.35513776  0.96875271  0.36214008     0.43420
C199        C  0.26897279  0.79336990  0.41460568    -0.20460
C200        C  0.28147040  0.77233765  0.45101365    -0.07030
C201        C  0.32130447  0.77396152  0.44404705     0.13840
C202        C  0.35103792  0.80312910  0.40774187    -0.20520
C203        C  0.34089663  0.82943830  0.37715953    -0.07030
C204        C  0.29854307  0.82252234  0.37819494     0.13830
C205        C  0.28465817  0.84610677  0.34129589    -0.23860
H206        H  0.23702278  0.78925160  0.41673884     0.15120
H207        H  0.38270537  0.80640262  0.40467498     0.15140
C208        C  0.33202480  0.74401656  0.97288703    -0.23810
H209        H  0.24997837  0.83556884  0.34606849     0.05360
H210        H  0.28985113  0.83955921  0.30026855     0.08580
H211        H  0.30351967  0.88142049  0.34883140     0.08580
H212        H  0.30568423  0.72134182  0.99891822     0.08570
H213        H  0.36168732  0.76274935  0.99638445     0.08570
H214        H  0.33683050  0.72358884  0.94422441     0.05340
C215        C  0.29316299  0.76211321  0.08664124    -0.20460
C216        C  0.27757280  0.77944838  0.04877184    -0.07030
C217        C  0.28748132  0.82285134  0.05403916     0.13840
C218        C  0.31567545  0.84863184  0.09310990    -0.20520
C219        C  0.33479470  0.83303233  0.12848420    -0.07030
C220        C  0.32163547  0.78826896  0.12661009     0.13830
C221        C  0.33735622  0.76762872  0.16561353    -0.23860
H222        H  0.28449251  0.72845429  0.08367211     0.15120
H223        H  0.32327434  0.88205280  0.09474201     0.15140
C224        C  0.26893024  0.84371149  0.01946966    -0.23810
H225        H  0.32237795  0.73224090  0.15894274     0.05360
H226        H  0.32881944  0.77242359  0.20581989     0.08580
H227        H  0.37273429  0.78175737  0.16256282     0.08580
H228        H  0.24238737  0.82032245  0.99446648     0.08570
H229        H  0.29475438  0.86883112  0.99461656     0.08570
H230        H  0.25502012  0.85923727  0.04417730     0.05340
C231        C  0.20731119  0.67193587  0.42281444    -0.20460
C232        C  0.19442200  0.69772385  0.44988855    -0.07030
C233        C  0.15649825  0.69735771  0.43448857     0.13840
C234        C  0.13053287  0.66869025  0.39545197    -0.20520
C235        C  0.14041586  0.63892194  0.37272674    -0.07030
C236        C  0.18036924  0.64175425  0.38511735     0.13830
C237        C  0.19353808  0.61122940  0.36222852    -0.23860
H238        H  0.23674597  0.67274821  0.43461261     0.15120
H239        H  0.10071747  0.66764769  0.38504519     0.15140
C240        C  0.14198913  0.72555971  0.46083942    -0.23810
H241        H  0.22502493  0.61738513  0.37790173     0.05360
H242        H  0.19679155  0.61527785  0.31913103     0.08580
H243        H  0.16911000  0.57737411  0.37210189     0.08580
H244        H  0.16809088  0.75990868  0.45973139     0.08570
H245        H  0.13298703  0.71502627  0.50184418     0.08570
H246        H  0.11321546  0.72327893  0.44140388     0.05340
C247        C  0.14894294  0.67769750  0.12519188    -0.20460
C248        C  0.13774673  0.63417064  0.12254757    -0.07030
C249        C  0.15620526  0.62052322  0.08385497     0.13840
C250        C  0.18591233  0.65081133  0.04899852    -0.20520
C251        C  0.19445191  0.69373952  0.04802856    -0.07030
C252        C  0.17620387  0.70758510  0.08755845     0.13830
C253        C  0.18180009  0.75214300  0.08958584    -0.23860
H254        H  0.13420086  0.68780919  0.15482485     0.15120
H255        H  0.20005584  0.63992234  0.01961727     0.15140
C256        C  0.14193021  0.57341109  0.07650383    -0.23810
H257        H  0.14977976  0.74978620  0.09214968     0.05360
H258        H  0.19741951  0.77099631  0.05421293     0.08580
H259        H  0.20113818  0.76963319  0.12451503     0.08580
H260        H  0.10701770  0.55506732  0.06695055     0.08570
H261        H  0.14745070  0.56057317  0.11307317     0.08570
H262        H  0.15975659  0.56821846  0.04447243     0.05340
C263        C  0.26390920  0.44544329  0.41840296    -0.20460
C264        C  0.27994720  0.47627933  0.45910347    -0.07030
C265        C  0.32502085  0.50589152  0.46133771     0.13840
C266        C  0.35250609  0.50278049  0.42500111    -0.20520
C267        C  0.33665640  0.47314626  0.38365542    -0.07030
C268        C  0.29177463  0.44407585  0.38018426     0.13830
C269        C  0.27366427  0.41081109  0.33727538    -0.23860
H270        H  0.22984162  0.42159870  0.41762547     0.15120
H271        H  0.38700866  0.52297262  0.43023497     0.15140
C272        C  0.34266160  0.54294162  0.99866043    -0.23810
H273        H  0.23804320  0.39044250  0.34007748     0.05360
H274        H  0.28765879  0.38931283  0.33981591     0.08580
H275        H  0.28176011  0.42725043  0.29865492     0.08580
H276        H  0.33840209  0.52973356  0.03872708     0.08570
H277        H  0.32654268  0.56242462  0.99555196     0.08570
H278        H  0.37773628  0.56517947  0.99258408     0.05340
C279        C  0.28720082  0.42829073  0.03996126    -0.20460
C280        C  0.26580790  0.45105192  0.05231863    -0.07030
C281        C  0.27083395  0.46613757  0.10498663     0.13840
C282        C  0.30958543  0.47741608  0.13089371    -0.20520
C283        C  0.33451546  0.45917280  0.11564939    -0.07030
C284        C  0.32201778  0.43283935  0.06976310     0.13830
C285        C  0.34651837  0.41189743  0.04870997    -0.23860
H286        H  0.27985612  0.41065649  0.00344767     0.15120
H287        H  0.31508081  0.49246861  0.16913734     0.15140
C288        C  0.23311295  0.44431665  0.14239598    -0.23810
H289        H  0.33403035  0.39621081  0.01013376     0.05360
H290        H  0.34344050  0.38615324  0.07565546     0.08580
H291        H  0.38088398  0.43686195  0.04305454     0.08580
H292        H  0.20493166  0.41655541  0.12377348     0.08570
H293        H  0.22493463  0.46784084  0.15898096     0.08570
H294        H  0.24074205  0.42991331  0.17648035     0.05340
C295        C  0.17920051  0.49297704  0.37060920    -0.20460
C296        C  0.13723742  0.48303918  0.38484668    -0.07030
C297        C  0.12890558  0.48560169  0.43802935     0.13840
C298        C  0.15927375  0.49053441  0.47505367    -0.20520
C299        C  0.19835681  0.49142898  0.46271300    -0.07030
C300        C  0.21087166  0.50055878  0.40914281     0.13830
C301        C  0.25696829  0.52950017  0.39293530    -0.23860
H302        H  0.18826037  0.49815466  0.32967148     0.15120
H303        H  0.15052863  0.49269236  0.51464462     0.15140
C304        C  0.08841038  0.48449333  0.45700175    -0.23810
H305        H  0.25978164  0.55770482  0.37111112     0.05360
H306        H  0.26775654  0.51221585  0.36648387     0.08580
H307        H  0.27852047  0.54341717  0.42722652     0.08580
H308        H  0.06015854  0.45215715  0.44963957     0.08570
H309        H  0.08469806  0.51004767  0.43721688     0.08570
H310        H  0.08891716  0.49029052  0.49974963     0.05340
C311        C  0.15885430  0.43417667  0.06380952    -0.20460
C312        C  0.19771317  0.47344135  0.05762525    -0.07030
C313        C  0.20693907  0.50871835  0.09068104     0.13840
C314        C  0.17626330  0.50433345  0.12764663    -0.20520
C315        C  0.13507813  0.46698656  0.12951319    -0.07030
C316        C  0.12725690  0.43044552  0.09908724     0.13830
C317        C  0.08577447  0.38762652  0.10229778    -0.23860
H318        H  0.15199233  0.40749280  0.03778717     0.15120
H319        H  0.18387013  0.53170717  0.15270406     0.15140
C320        C  0.24797833  0.55170984  0.08642195    -0.23810
H321        H  0.08766897  0.36202289  0.07981083     0.05360
H322        H  0.05875719  0.39039702  0.08547055     0.08580
H323        H  0.07884261  0.37683854  0.14366187     0.08580
H324        H  0.27017579  0.55163924  0.05641028     0.08570
H325        H  0.26513774  0.55987736  0.12454881     0.08570
H326        H  0.24019721  0.57722734  0.07613028     0.05340
C327        C  0.45993582  0.66055496  0.43023512    -0.20460
C328        C  0.49935260  0.69536344  0.44722845    -0.07030
C329        C  0.53745972  0.70452067  0.41998357     0.13840
C330        C  0.53558834  0.67460523  0.38273947    -0.20520
C331        C  0.49607582  0.63892959  0.36734258    -0.07030
C332        C  0.45757914  0.63471236  0.38780977     0.13830
C333        C  0.41399600  0.60311793  0.36568346    -0.23860
H334        H  0.43051407  0.65331485  0.45000494     0.15120
H335        H  0.56508148  0.67929620  0.36500641     0.15140
C336        C  0.57969321  0.74596155  0.42767754    -0.23810
H337        H  0.38733800  0.60293599  0.38799784     0.05360
H338        H  0.40916289  0.57017414  0.36608702     0.08580
H339        H  0.41201029  0.61210609  0.32463619     0.08580
H340        H  0.58878026  0.75305825  0.46917534     0.08570
H341        H  0.57726785  0.77308238  0.41062083     0.08570
H342        H  0.60649540  0.74503333  0.40714624     0.05340
C343        C  0.53540031  0.69023147  0.05661298    -0.20460
C344        C  0.49864583  0.69317264  0.04609027    -0.07030
C345        C  0.46105992  0.66754359  0.07618014     0.13840
C346        C  0.46082651  0.63785204  0.11305141    -0.20520
C347        C  0.49734922  0.63343232  0.12114132    -0.07030
C348        C  0.53594072  0.66215207  0.09419702     0.13830
C349        C  0.57843988  0.66405074  0.10392481    -0.23860
H350        H  0.56417335  0.70918747  0.03406627     0.15120
H351        H  0.43139314  0.61684603  0.13415204     0.15140
C352        C  0.42078505  0.67018316  0.06884910    -0.23810
H353        H  0.60567218  0.69218776  0.08416660     0.05360
H354        H  0.57760104  0.63470268  0.08822792     0.08580
H355        H  0.58569307  0.66748875  0.14646331     0.08580
H356        H  0.40886730  0.66187303  0.02823169     0.08570
H357        H  0.42742552  0.70325564  0.07806129     0.08570
H358        H  0.39447278  0.64743569  0.09513968     0.05340
C359        C  0.47561087  0.80009833  0.37513367    -0.20460
C360        C  0.51240294  0.84158138  0.37248861    -0.07030
C361        C  0.54819521  0.85090446  0.40502785     0.13840
C362        C  0.54423396  0.82035414  0.44230178    -0.20520
C363        C  0.50595795  0.78066973  0.44812312    -0.07030
C364        C  0.47136316  0.77017087  0.41342571     0.13830
C365        C  0.42784996  0.73022514  0.41895025    -0.23860
H366        H  0.44803775  0.79214659  0.35039606     0.15120
H367        H  0.57059263  0.82836450  0.46921211     0.15140
C368        C  0.59056695  0.89289165  0.40198183    -0.23810
H369        H  0.40289098  0.73971906  0.41908877     0.05360
H370        H  0.42430148  0.71289209  0.45602178     0.08580
H371        H  0.42179300  0.70829884  0.38523839     0.08580
H372        H  0.58691050  0.92004617  0.41678696     0.08570
H373        H  0.60232720  0.89909565  0.36097515     0.08570
H374        H  0.61578151  0.89201519  0.42633999     0.05340
C375        C  0.52870382  0.82565709  0.12176836    -0.20460
C376        C  0.49774288  0.83847801  0.11811016    -0.07030
C377        C  0.46681805  0.82169598  0.07790025     0.13840
C378        C  0.46582584  0.79047263  0.04407852    -0.20520
C379        C  0.49802755  0.77891065  0.04526415    -0.07030
C380        C  0.53062647  0.79780554  0.08420630     0.13830
C381        C  0.57005273  0.79323680  0.08454424    -0.23860
H382        H  0.55342719  0.84000396  0.15166875     0.15120
H383        H  0.44165319  0.77766202  0.01354742     0.15140
C384        C  0.43720196  0.83949193  0.06798580    -0.23810
H385        H  0.59940796  0.82578381  0.08640938     0.05360
H386        H  0.57300331  0.77785310  0.04864087     0.08580
H387        H  0.56938120  0.77422664  0.11925164     0.08580
H388        H  0.45662099  0.87480301  0.06026662     0.08570
H389        H  0.41662939  0.83408601  0.10252926     0.08570
H390        H  0.41612708  0.82428927  0.03358136     0.05340
C391        C  0.79682017  0.31663938  0.04093550    -0.20460
C392        C  0.78359580  0.27249887  0.04847183    -0.07030
C393        C  0.79775404  0.26107738  0.09492778     0.13840
C394        C  0.82550173  0.29376352  0.12979285    -0.20520
C395        C  0.84216096  0.33741700  0.11805415    -0.07030
C396        C  0.82823237  0.34912069  0.07277303     0.13830
C397        C  0.84969742  0.39559118  0.05517872    -0.23860
H398        H  0.78667159  0.32624032  0.00593765     0.15120
H399        H  0.83691755  0.28541079  0.16473255     0.15140
C400        C  0.78859757  0.21612006  0.10656061    -0.23810
H401        H  0.83432816  0.39965706  0.01955334     0.05360
H402        H  0.88408849  0.40723735  0.04616516     0.08580
H403        H  0.84837417  0.41599815  0.08665872     0.08580
H404        H  0.79555169  0.20227210  0.07188135     0.08570
H405        H  0.75509872  0.19626916  0.12040211     0.08570
H406        H  0.80925707  0.21562801  0.13864017     0.05340
C407        C  0.77632263  0.27808572  0.40969799    -0.20460
C408        C  0.79342543  0.26546950  0.45130889    -0.07030
C409        C  0.83745350  0.27750993  0.44954136     0.13840
C410        C  0.86368268  0.30527606  0.41010848    -0.20520
C411        C  0.84754101  0.32113410  0.37096665    -0.07030
C412        C  0.80230201  0.30345187  0.36789259     0.13830
C413        C  0.78065531  0.30844647  0.31993973    -0.23860
H414        H  0.74281320  0.26934548  0.41039040     0.15120
H415        H  0.89779449  0.31610663  0.41171228     0.15140
C416        C  0.85799679  0.26281327  0.49005838    -0.23810
H417        H  0.74496779  0.28969750  0.32345599     0.05360
H418        H  0.78972289  0.29605355  0.28525555     0.08580
H419        H  0.78991958  0.34244169  0.31292489     0.08580
H420        H  0.83919285  0.22719421  0.49464966     0.08570
H421        H  0.86039471  0.27875696  0.02794156     0.08570
H422        H  0.89127365  0.27140390  0.47885122     0.05340
C423        C  0.67304658  0.19363649  0.43075846    -0.20460
C424        C  0.70725689  0.18722637  0.44529154    -0.07030
C425        C  0.71553638  0.15934142  0.41431250     0.13840
C426        C  0.68429499  0.13187107  0.37818916    -0.20520
C427        C  0.64796880  0.13558591  0.36714363    -0.07030
C428        C  0.64522940  0.17039284  0.38939370     0.13830
C429        C  0.61411727  0.18388304  0.36956788    -0.23860
H430        H  0.66832069  0.21726715  0.45180667     0.15120
H431        H  0.68849359  0.10748391  0.35813033     0.15140
C432        C  0.75684869  0.15830718  0.41655951    -0.23810
H433        H  0.61604517  0.21115431  0.39263963     0.05360
H434        H  0.58057430  0.15693540  0.37107439     0.08580
H435        H  0.62205253  0.19470141  0.32832204     0.08580
H436        H  0.78054239  0.18286210  0.44342461     0.08570
H437        H  0.77184934  0.16554905  0.37713677     0.08570
H438        H  0.75026463  0.12567199  0.42852033     0.05340
C439        C  0.67372330  0.19585863  0.06383404    -0.20460
C440        C  0.70158651  0.18267360  0.04297011    -0.07030
C441        C  0.69623463  0.14224610  0.05867810     0.13840
C442        C  0.66424246  0.11685476  0.09452746    -0.20520
C443        C  0.63512160  0.12875128  0.11403336    -0.07030
C444        C  0.63964934  0.16885542  0.09781116     0.13830
C445        C  0.60768645  0.18287820  0.11135434    -0.23860
H446        H  0.67651904  0.22594956  0.05039037     0.15120
H447        H  0.66173918  0.08659468  0.10680477     0.15140
C448        C  0.72433882  0.12480903  0.04009875    -0.23810
H449        H  0.62384141  0.21285562  0.13525035     0.05360
H450        H  0.57924157  0.15798363  0.13265824     0.08580
H451        H  0.59537403  0.18973098  0.07483327     0.08580
H452        H  0.75230613  0.14880472  0.01786709     0.08570
H453        H  0.70512226  0.09557993  0.01565270     0.08570
H454        H  0.73740378  0.11589213  0.07428636     0.05340
C455        C  0.50797877  0.28176715  0.42329547    -0.20460
C456        C  0.47300852  0.26346310  0.45813735    -0.07030
C457        C  0.43954551  0.27307443  0.45163346     0.13840
C458        C  0.44412956  0.30409051  0.41521723    -0.20520
C459        C  0.48094332  0.32599005  0.38353049    -0.07030
C460        C  0.51248940  0.31295509  0.38594551     0.13830
C461        C  0.55146287  0.33214449  0.35083068    -0.23860
H462        H  0.53298015  0.27338690  0.42717849     0.15120
H463        H  0.41832251  0.31144634  0.41237412     0.15140
C464        C  0.39801512  0.25104505  0.48225278    -0.23810
H465        H  0.57240780  0.31809526  0.35858320     0.05360
H466        H  0.57116955  0.36753882  0.35726430     0.08580
H467        H  0.54109261  0.32546297  0.30930361     0.08580
H468        H  0.39628587  0.27485437  0.00853648     0.08570
H469        H  0.39434078  0.22327178  0.50537510     0.08570
H470        H  0.37035796  0.23801195  0.95460947     0.05340
C471        C  0.44643943  0.25366472  0.09125176    -0.20460
C472        C  0.48066025  0.26638035  0.05587844    -0.07030
C473        C  0.51926688  0.30594732  0.06436169     0.13840
C474        C  0.52043777  0.33475292  0.10225630    -0.20520
C475        C  0.48467786  0.32399164  0.13394521    -0.07030
C476        C  0.44783325  0.28226912  0.12995108     0.13830
C477        C  0.40975970  0.26814298  0.16578112    -0.23860
H478        H  0.41774661  0.22221700  0.08703893     0.15120
H479        H  0.54873553  0.36661012  0.10522993     0.15140
C480        C  0.55933006  0.31888889  0.03297274    -0.23810
H481        H  0.38469006  0.23385339  0.15889619     0.05360
H482        H  0.39468935  0.28826334  0.15913341     0.08580
H483        H  0.42045604  0.27138226  0.20713472     0.08580
H484        H  0.56211704  0.34171673  0.50204235     0.08570
H485        H  0.55894190  0.29049956  0.01484831     0.08570
H486        H  0.58821520  0.33453994  0.05866190     0.05340
C487        C  0.45983866  0.14222655  0.37702861    -0.20460
C488        C  0.48429599  0.12280202  0.38940344    -0.07030
C489        C  0.50558116  0.13150287  0.43793238     0.13840
C490        C  0.50499194  0.16239861  0.47089863    -0.20520
C491        C  0.47727279  0.17906706  0.46162674    -0.07030
C492        C  0.45338236  0.16759567  0.41406130     0.13830
C493        C  0.41670626  0.17560071  0.40379380    -0.23860
H494        H  0.44193855  0.13369291  0.34056234     0.15120
H495        H  0.52300837  0.17009840  0.50717688     0.15140
C496        C  0.52534032  0.10537546  0.45751645    -0.23810
H497        H  0.38815600  0.14539330  0.38962429     0.05360
H498        H  0.42612100  0.20105558  0.37351055     0.08580
H499        H  0.40610455  0.18450444  0.43976388     0.08580
H500        H  0.54941707  0.10625563  0.42981658     0.08570
H501        H  0.49957460  0.07111557  0.46241234     0.08570
H502        H  0.54139604  0.11720671  0.49603484     0.05340
C503        C  0.49479487  0.19399072  0.09744336    -0.20460
C504        C  0.46294546  0.17709460  0.05832604    -0.07030
C505        C  0.42728281  0.13499520  0.06447347     0.13840
C506        C  0.42795602  0.10854706  0.10432448    -0.20520
C507        C  0.46263079  0.12366655  0.13971383    -0.07030
C508        C  0.49308952  0.16868804  0.14032373     0.13830
C509        C  0.52265741  0.19175948  0.18577667    -0.23860
H510        H  0.52153800  0.22682705  0.09430998     0.15120
H511        H  0.40230583  0.07505421  0.10562684     0.15140
C512        C  0.38910626  0.11717807  0.02800935    -0.23810
H513        H  0.55664830  0.20385127  0.17472879     0.05360
H514        H  0.51932476  0.22002789  0.19677109     0.08580
H515        H  0.51449585  0.17165190  0.22146577     0.08580
H516        H  0.39845904  0.11261810  0.98832694     0.08570
H517        H  0.37625078  0.13968095  0.02638453     0.08570
H518        H  0.36268785  0.08517985  0.04133829     0.05340
C519        C  0.71556673  0.52740319  0.42317496    -0.20460
C520        C  0.70318583  0.49165329  0.45648439    -0.07030
C521        C  0.66142457  0.45514868  0.45004257     0.13840
C522        C  0.63232310  0.45679374  0.41499858    -0.20520
C523        C  0.64366850  0.49362903  0.38497508    -0.07030
C524        C  0.68611272  0.52905118  0.38800002     0.13830
C525        C  0.70016010  0.56862576  0.35461485    -0.23860
H526        H  0.74736447  0.55529936  0.42658937     0.15120
H527        H  0.59982721  0.42939269  0.41235464     0.15140
C528        C  0.64565745  0.41412401  0.98074262    -0.23810
H529        H  0.73467417  0.59297905  0.36093480     0.05360
H530        H  0.68078226  0.58402874  0.36431377     0.08580
H531        H  0.69562037  0.55931600  0.31265364     0.08580
H532        H  0.63157634  0.38597347  0.95368799     0.08570
H533        H  0.67174021  0.41318296  0.00200210     0.08570
H534        H  0.62087718  0.41110320  0.00906057     0.05340
C535        C  0.67244004  0.53291053  0.10098788    -0.20460
C536        C  0.64949962  0.49575477  0.13224672    -0.07030
C537        C  0.66067505  0.46297683  0.12915054     0.13840
C538        C  0.68969606  0.46581704  0.09029821    -0.20520
C539        C  0.70897977  0.50084087  0.05533565    -0.07030
C540        C  0.70243228  0.53622656  0.06367382     0.13830
C541        C  0.72633064  0.57811610  0.03406190    -0.23860
H542        H  0.66647605  0.55968787  0.10481093     0.15120
H543        H  0.69491092  0.43898133  0.08541484     0.15140
C544        C  0.64157939  0.42421896  0.16497135    -0.23810
H545        H  0.70367045  0.58221339  0.00833904     0.05360
H546        H  0.74157765  0.60554803  0.56195865     0.08580
H547        H  0.75293561  0.57985260  0.51016585     0.08580
H548        H  0.60614326  0.40524650  0.16022136     0.08570
H549        H  0.64972697  0.43511214  0.20619220     0.08570
H550        H  0.65432768  0.40220908  0.15660525     0.05340
C551        C  0.82167661  0.53519926  0.07317655    -0.20460
C552        C  0.78833201  0.49522749  0.05502767    -0.07030
C553        C  0.78217489  0.45678902  0.07942088     0.13840
C554        C  0.81004482  0.45963292  0.11945539    -0.20520
C555        C  0.84694863  0.49893912  0.13189430    -0.07030
C556        C  0.85201724  0.53762431  0.10982297     0.13830
C557        C  0.88923265  0.58156084  0.12415072    -0.23860
H558        H  0.82577764  0.56474250  0.05631484     0.15120
H559        H  0.80478630  0.43002933  0.13788101     0.15140
C560        C  0.74833833  0.41181660  0.06339006    -0.23810
H561        H  0.88558899  0.60808310  0.10688275     0.05360
H562        H  0.91991710  0.58535268  0.10905680     0.08580
H563        H  0.89105017  0.58563266  0.16730106     0.08580
H564        H  0.72703762  0.41171680  0.03255645     0.08570
H565        H  0.72796995  0.39429218  0.09763554     0.08570
H566        H  0.76399049  0.39379394  0.04881657     0.05340
C567        C  0.78344469  0.45416331  0.44002773    -0.20460
C568        C  0.78868092  0.49405440  0.45616129    -0.07030
C569        C  0.82276570  0.53244126  0.43381907     0.13840
C570        C  0.85112972  0.52975997  0.39816523    -0.20520
C571        C  0.84746942  0.48996045  0.38504032    -0.07030
C572        C  0.81308724  0.45166740  0.40649017     0.13830
C573        C  0.80883981  0.40821150  0.39677970    -0.23860
H574        H  0.75735736  0.42459266  0.45574234     0.15120
H575        H  0.87733671  0.55929755  0.38179923     0.15140
C576        C  0.83156009  0.57705477  0.44763687    -0.23810
H577        H  0.78188133  0.38198808  0.41927340     0.05360
H578        H  0.83902503  0.40880442  0.40819696     0.08580
H579        H  0.80225564  0.40060228  0.35478675     0.08580
H580        H  0.80819001  0.57656014  0.47587145     0.08570
H581        H  0.82996739  0.59371867  0.41175072     0.08570
H582        H  0.86427064  0.59605405  0.46496698     0.05340
C583        C  0.76599723  0.49482297  0.00539700     0.00410
C584        C  0.72881488  0.49652073  0.50518365     0.00410
C585        C  0.46975998  0.20069098  0.50778933     0.00410
C586        C  0.47461592  0.24113855  0.50678630     0.00410
C587        C  0.72896106  0.20603877  0.49654646     0.00410
C588        C  0.76683913  0.24460967  0.99981354     0.00410
C589        C  0.50108910  0.75628215  0.49743997     0.00410
C590        C  0.49946289  0.71717311  0.49737772     0.00410
C591        C  0.22068139  0.48031268  0.00725198     0.00410
C592        C  0.25272002  0.47013647  0.50654219     0.00410
C593        C  0.21622407  0.71901751  0.99985039     0.00410
C594        C  0.25623330  0.75443428  0.50030355     0.00410
O595        O  0.91911849  0.37005086  0.84785972    -0.75450
O596        O  0.86727576  0.37789720  0.80693959    -0.54360
C597        C  0.87944564  0.35819082  0.83887726     0.78280
O598        O  0.06647653  0.59104884  0.85503941    -0.60050
O599        O  0.11617270  0.58473621  0.80631796    -0.53080
C600        C  0.10562322  0.60270511  0.84236487     0.70290
O601        O  0.92060328  0.51823219  0.86223902    -0.74610
O602        O  0.86931608  0.46087411  0.81577696    -0.55170
C603        C  0.88113870  0.48962420  0.85205043     0.76300
O604        O  0.06443466  0.44781774  0.85587674    -0.59750
O605        O  0.11552753  0.50540316  0.80965010    -0.52870
C606        C  0.10377717  0.47740267  0.84664629     0.72890
Zr607      Zr  0.99145734  0.42554233  0.82483281     2.54710
O608        O  0.98399646  0.41887225  0.91950135    -0.80320
O609        O  0.99561879  0.35976394  0.81855036    -0.93740
Zr610      Zr  0.99259880  0.53756366  0.83109444     2.64680
O611        O  0.99456094  0.53597463  0.92632633    -0.98690
O612        O  0.99345674  0.60616146  0.83062039    -0.80750
O613        O  0.95041895  0.46089955  0.82993616    -0.84110
O614        O  0.03305216  0.50186235  0.82896758    -2.18820
O615        O  0.06118782  0.44324889  0.64695615    -0.67500
O616        O  0.11225117  0.49844315  0.69581388    -0.52060
C617        C  0.10057443  0.46907854  0.66044570     0.71270
O618        O  0.92031418  0.52387514  0.65041592    -0.60410
O619        O  0.86923131  0.46714389  0.69762925    -0.52380
C620        C  0.88098004  0.49705285  0.66276200     0.73070
O621        O  0.06486157  0.59377198  0.64812809    -0.71800
O622        O  0.11439610  0.58217822  0.69026833    -0.50480
C623        C  0.10354598  0.60181173  0.65677726     0.74460
O624        O  0.91574956  0.38018300  0.63904920    -0.67130
O625        O  0.86615258  0.38596506  0.68932962    -0.54330
C626        C  0.87690240  0.36994477  0.65113563     0.72840
Zr627      Zr  0.98903971  0.42829894  0.67066732     2.77540
O628        O  0.99184820  0.43172708  0.57542030    -0.97880
O629        O  0.98190401  0.35685236  0.67180640    -0.78700
Zr630      Zr  0.99222916  0.54105801  0.67701417     2.70070
O631        O  0.99142656  0.54386947  0.58188172    -0.79950
O632        O  0.99391368  0.60966684  0.68670901    -0.99030
Zr633      Zr  0.90788320  0.44222702  0.75251046     2.21500
Zr634      Zr  0.07392734  0.52309023  0.75026665     2.11130
O635        O  0.03221938  0.50473711  0.67197379    -2.47720
O636        O  0.94895883  0.46454035  0.67380041    -0.80220
O637        O  0.03241824  0.44615247  0.74706402    -0.71940
O638        O  0.95001608  0.51939655  0.75443703    -2.32890
O639        O  0.94791592  0.40533207  0.74842912    -2.29100
O640        O  0.03486940  0.56084855  0.75375687    -0.73700
H641        H  0.05148861  0.51082699  0.85932207     0.78300
H642        H  0.93181652  0.53214264  0.75570227     0.79390
H643        H  0.05041948  0.51395521  0.64135403     0.81610
H644        H  0.92894394  0.37435025  0.74700057     0.79220
H645        H  0.97067546  0.60195327  0.80545815     0.42260
H646        H  0.01993760  0.62778490  0.70804999     0.41230
H647        H  0.98542925  0.51486484  0.57051297     0.40900
H648        H  0.01868371  0.45899600  0.56702746     0.38840
H649        H  0.00415412  0.35954038  0.69691339     0.41970
H650        H  0.97076626  0.34010572  0.79635553     0.36750
H651        H  0.98057302  0.44355730  0.93049105     0.42870
H652        H  0.01914516  0.53176097  0.93482023     0.39290
H653        H  0.99776248  0.40856770  0.56473835     0.44200
H654        H  0.98783741  0.34687416  0.85396036     0.42930
H655        H  0.00420966  0.56608816  0.93720792     0.43060
H656        H  0.00129996  0.62282360  0.65141571     0.43420
O657        O  0.45503675  0.36739763  0.65466219    -0.75450
O658        O  0.51583789  0.37977382  0.69804396    -0.54360
C659        C  0.48502299  0.35888646  0.66506622     0.78280
O660        O  0.52228956  0.58565415  0.64578030    -0.60050
O661        O  0.46424239  0.57985053  0.68878997    -0.53080
C662        C  0.49458107  0.59769717  0.65450669     0.70290
O663        O  0.59880819  0.51735160  0.64992324    -0.74610
O664        O  0.59611648  0.46343533  0.69992514    -0.55170
C665        C  0.61274986  0.49183696  0.66323996     0.76300
O666        O  0.38357368  0.43763103  0.64367029    -0.59750
O667        O  0.38649832  0.49526568  0.68511485    -0.52870
C668        C  0.37092176  0.46497139  0.65016893     0.72890
Zr669      Zr  0.43574469  0.42108948  0.67879194     2.54710
O670        O  0.43704058  0.41549935  0.58399886    -0.80320
O671        O  0.36710522  0.35402387  0.68725842    -0.93740
Zr672      Zr  0.54373403  0.53425557  0.67474578     2.64680
O673        O  0.54316743  0.53039848  0.57954377    -0.98690
O674        O  0.61029946  0.60392297  0.67556025    -0.80750
O675        O  0.51190921  0.45791208  0.67667942    -0.84110
O676        O  0.46772628  0.49728984  0.67328199    -2.18820
O677        O  0.38102870  0.44416069  0.86052759    -0.67500
O678        O  0.38541776  0.49929339  0.81043835    -0.52060
C679        C  0.36908878  0.47150153  0.84806032     0.71270
O680        O  0.59920239  0.52216329  0.86016856    -0.60410
O681        O  0.59239411  0.46268974  0.81773352    -0.52380
C682        C  0.61015623  0.49338799  0.85151114     0.73070
O683        O  0.52551399  0.59411576  0.84949507    -0.71800
O684        O  0.46714309  0.58389380  0.80206946    -0.50480
C685        C  0.49673112  0.60399282  0.83668308     0.74460
O686        O  0.45755529  0.37532538  0.86119467    -0.67130
O687        O  0.51397182  0.37988637  0.81538203    -0.54330
C688        C  0.48478267  0.36275161  0.85093274     0.72840
Zr689      Zr  0.43562156  0.42652068  0.83233115     2.77540
O690        O  0.43759464  0.42849851  0.92763831    -0.97880
O691        O  0.36849503  0.35743141  0.82988913    -0.78700
Zr692      Zr  0.54481319  0.53926746  0.82835605     2.70070
O693        O  0.54314461  0.54263556  0.92339811    -0.79950
O694        O  0.61287750  0.60704478  0.82083412    -0.99030
Zr695      Zr  0.53368548  0.44041505  0.75643947     2.21500
Zr696      Zr  0.44524417  0.51975862  0.74897192     2.11130
O697        O  0.46829331  0.50291537  0.82901911    -2.47720
O698        O  0.51206410  0.46287589  0.83294784    -0.79740
O699        O  0.41178247  0.44276450  0.75334917    -0.71940
O700        O  0.56741182  0.51747736  0.75318460    -2.32890
O701        O  0.45680159  0.40255691  0.75751982    -2.29100
O702        O  0.52233755  0.55740916  0.74971019    -0.73700
H703        H  0.45864903  0.50506970  0.64154132     0.78300
H704        H  0.59843928  0.53081366  0.75340773     0.79390
H705        H  0.45908961  0.51288109  0.85877630     0.81610
H706        H  0.44510615  0.37162341  0.75892840     0.79220
H707        H  0.62858257  0.60090292  0.70231533     0.42260
H708        H  0.60641554  0.62527299  0.79764906     0.41230
H709        H  0.52832247  0.51200609  0.93475880     0.40900
H710        H  0.44077617  0.45684583  0.93705984     0.38840
H711        H  0.35014685  0.36188725  0.80461566     0.41970
H712        H  0.37303591  0.33580430  0.71111814     0.36750
H713        H  0.46048988  0.44422400  0.57252969     0.42870
H714        H  0.51713703  0.53125588  0.56852828     0.39290
H715        H  0.40792126  0.40697416  0.93855807     0.44200
H716        H  0.36240061  0.33989118  0.65264790     0.42930
H717        H  0.56760336  0.55863649  0.56835607     0.43060
H718        H  0.61738385  0.62062952  0.85577493     0.43420
O719        O  0.58792003  0.05650296  0.63657359    -0.75450
O720        O  0.58594416  0.10801476  0.68695594    -0.54360
C721        C  0.60024384  0.09612945  0.64785379     0.78280
O722        O  0.38016903  0.90550089  0.65397423    -0.60050
O723        O  0.38983121  0.85498736  0.69577468    -0.53080
C724        C  0.37013148  0.86604859  0.66251438     0.70290
O725        O  0.44181892  0.05065498  0.65848881    -0.74610
O726        O  0.50243322  0.10354224  0.69724210    -0.55170
C727        C  0.46911823  0.09075092  0.66795463     0.76300
O728        O  0.52694510  0.91186510  0.64121226    -0.59750
O729        O  0.47192859  0.85984601  0.68994567    -0.52870
C730        C  0.49980022  0.87221870  0.65290067     0.72890
Zr731      Zr  0.54409742  0.98396258  0.67072806     2.54710
O732        O  0.54567568  0.98123322  0.57564683    -0.80320
O733        O  0.61494769  0.99057384  0.67655793    -0.93740
Zr734      Zr  0.43137008  0.97931747  0.67857159     2.64680
O735        O  0.43322594  0.98276192  0.58334930    -0.98690
O736        O  0.36016751  0.97202961  0.68023128    -0.80750
O737        O  0.50708713  0.02357162  0.67242592    -0.84110
O738        O  0.46831516  0.93999787  0.67314343    -2.18820
O739        O  0.53634112  0.91510773  0.85115121    -0.67500
O740        O  0.47952969  0.86215592  0.80631869    -0.52060
C741        C  0.50996701  0.87513880  0.84046331     0.71270
O742        O  0.45760150  0.05015062  0.86647130    -0.60410
O743        O  0.50918653  0.10293960  0.81461093    -0.52380
C744        C  0.48347006  0.08990580  0.85409411     0.73070
O745        O  0.38430963  0.90386618  0.85765507    -0.71800
O746        O  0.39488880  0.85507457  0.81184237    -0.50480
C747        C  0.37538550  0.86501634  0.84644181     0.74460
O748        O  0.60287382  0.06127790  0.84861254    -0.67130
O749        O  0.59152349  0.10995135  0.80399644    -0.54330
C750        C  0.61197208  0.10021772  0.83753203     0.72840
Zr751      Zr  0.55038843  0.98647325  0.82473726     2.77540
O752        O  0.55162715  0.98918148  0.92001811    -0.97880
O753        O  0.61998880  0.99030516  0.82022141    -0.78700
Zr754      Zr  0.43617039  0.97853641  0.83223583     2.70070
O755        O  0.43343819  0.97428440  0.92732082    -0.79950
O756        O  0.36887457  0.97950800  0.82748884    -0.99030
Zr757      Zr  0.52897277  0.06582286  0.75032511     2.21500
Zr758      Zr  0.45234226  0.89853286  0.75139776     2.11130
O759        O  0.47441293  0.94059540  0.82979428    -2.47720
O760        O  0.51226613  0.02440979  0.82882627    -0.79740
O761        O  0.52891211  0.94266823  0.74821775    -0.71940
O762        O  0.45236685  0.02142386  0.75578689    -2.32890
O763        O  0.56784338  0.02776996  0.74685009    -2.29100
O764        O  0.41316833  0.93621076  0.75515269    -0.73700
H765        H  0.45873149  0.92163519  0.64258071     0.78300
H766        H  0.43867159  0.03874558  0.75810484     0.79390
H767        H  0.46706453  0.92228870  0.86030636     0.81610
H768        H  0.59851881  0.04767153  0.74492899     0.79220
H769        H  0.36188286  0.99194248  0.70828563     0.42260
H770        H  0.35073171  0.95589786  0.80283545     0.41230
H771        H  0.46347438  0.98397750  0.93801781     0.40900
H772        H  0.52651350  0.96142236  0.93122453     0.38840
H773        H  0.61646558  0.96957058  0.79229160     0.41970
H774        H  0.63513581  0.02166665  0.68331188     0.36750
H775        H  0.52108208  0.98448494  0.56416471     0.42870
H776        H  0.43616895  0.95785263  0.57208018     0.39290
H777        H  0.57701705  0.98678758  0.93003343     0.44200
H778        H  0.62144798  0.98594503  0.64028905     0.42930
H779        H  0.40352559  0.97482323  0.57307901     0.43060
H780        H  0.35522807  0.96872228  0.86205962     0.43420
C781        C  0.26898182  0.79354676  0.91434556    -0.20460
C782        C  0.28141976  0.77247817  0.95076690    -0.07030
C783        C  0.32118758  0.77396567  0.94378841     0.13840
C784        C  0.35095475  0.80307940  0.90747674    -0.20520
C785        C  0.34090103  0.82946080  0.87691144    -0.07030
C786        C  0.29858522  0.82264755  0.87793146     0.13830
C787        C  0.28477756  0.84629180  0.84102344    -0.23860
H788        H  0.23706562  0.78951345  0.91648675     0.15120
H789        H  0.38258737  0.80627023  0.90441054     0.15140
C790        C  0.33224243  0.74408418  0.47314037    -0.23810
H791        H  0.25011105  0.83581657  0.84577935     0.05360
H792        H  0.28996342  0.83973047  0.79999931     0.08580
H793        H  0.30368781  0.88160090  0.84856641     0.08580
H794        H  0.30593071  0.72135777  0.49916539     0.08570
H795        H  0.36189166  0.76286586  0.49664001     0.08570
H796        H  0.33710221  0.72369943  0.44447591     0.05340
C797        C  0.29322924  0.76192371  0.58685447    -0.20460
C798        C  0.27754967  0.77918316  0.54900505    -0.07030
C799        C  0.28740997  0.82257903  0.55424000     0.13840
C800        C  0.31564457  0.84842528  0.59324374    -0.20520
C801        C  0.33486015  0.83290587  0.62857795    -0.07030
C802        C  0.32175787  0.78815177  0.62674302     0.13830
C803        C  0.33762006  0.76760013  0.66568537    -0.23860
H804        H  0.28460265  0.72827550  0.58391137     0.15120
H805        H  0.32319904  0.88183317  0.59485434     0.15140
C806        C  0.26874756  0.84335657  0.51971216    -0.23810
H807        H  0.32268887  0.73221283  0.65904864     0.05360
H808        H  0.32914776  0.77240365  0.70592230     0.08580
H809        H  0.37300031  0.78179013  0.66251740     0.08580
H810        H  0.24217793  0.81991445  0.49478003     0.08570
H811        H  0.29450775  0.86847741  0.49479309     0.08570
H812        H  0.25483891  0.85886622  0.54445091     0.05340
C813        C  0.20706650  0.67197841  0.92303417    -0.20460
C814        C  0.19425995  0.69793336  0.94987476    -0.07030
C815        C  0.15636157  0.69757536  0.93436418     0.13840
C816        C  0.13034321  0.66877186  0.89546895    -0.20520
C817        C  0.14016057  0.63888615  0.87297353    -0.07030
C818        C  0.18008837  0.64169169  0.88545241     0.13830
C819        C  0.19320976  0.61106672  0.86275061    -0.23860
H820        H  0.23649340  0.67279750  0.93488286     0.15120
H821        H  0.10054499  0.66773649  0.88498488     0.15140
C822        C  0.14191533  0.72592048  0.96045676    -0.23810
H823        H  0.22467807  0.61721845  0.87848576     0.05360
H824        H  0.19648768  0.61502019  0.81964408     0.08580
H825        H  0.16874956  0.57723755  0.87270125     0.08580
H826        H  0.16809281  0.76023736  0.95934239     0.08570
H827        H  0.13276412  0.71543360  0.00143983     0.08570
H828        H  0.11323705  0.72371053  0.94084211     0.05340
C829        C  0.14939772  0.67728805  0.62573402    -0.20460
C830        C  0.13748730  0.63358814  0.62252533    -0.07030
C831        C  0.15508003  0.61967193  0.58306798     0.13840
C832        C  0.18510769  0.64995620  0.54846345    -0.20520
C833        C  0.19438989  0.69315632  0.54806650    -0.07030
C834        C  0.17657125  0.70713893  0.58799745     0.13830
C835        C  0.18232565  0.75175496  0.59023761    -0.23860
H836        H  0.13512866  0.68756537  0.65578962     0.15120
H837        H  0.19874085  0.63885002  0.51868868     0.15140
C838        C  0.13929073  0.57234672  0.57442712    -0.23810
H839        H  0.15037708  0.74949595  0.59341628     0.05360
H840        H  0.19751439  0.77048817  0.55464871     0.08580
H841        H  0.20207613  0.76929045  0.62489540     0.08580
H842        H  0.10447712  0.55528196  0.56431150     0.08570
H843        H  0.14359895  0.55823673  0.61064145     0.08570
H844        H  0.15685733  0.56689180  0.54228691     0.05340
C845        C  0.26401526  0.44370473  0.91823312    -0.20460
C846        C  0.27944443  0.47563882  0.95765516    -0.07030
C847        C  0.32403684  0.50694241  0.95868065     0.13840
C848        C  0.35194644  0.50427445  0.92251311    -0.20520
C849        C  0.33669901  0.47318152  0.88269252    -0.07030
C850        C  0.29215858  0.44252094  0.88037060     0.13830
C851        C  0.27474570  0.40781052  0.83910391    -0.23860
H852        H  0.23031113  0.41875146  0.91846233     0.15120
H853        H  0.38633141  0.52552957  0.92700527     0.15140
C854        C  0.34562669  0.54040662  0.50286136    -0.23810
H855        H  0.23929978  0.38636512  0.84264462     0.05360
H856        H  0.29006960  0.38757918  0.84293864     0.08580
H857        H  0.28184799  0.42293342  0.79971107     0.08580
H858        H  0.36791994  0.53445036  0.52692606     0.08570
H859        H  0.32186613  0.54170708  0.52916928     0.08570
H860        H  0.36428212  0.57262368  0.48396123     0.05340
C861        C  0.28514484  0.42781048  0.54248571    -0.20460
C862        C  0.26605386  0.45288103  0.55408820    -0.07030
C863        C  0.27435564  0.47141497  0.60520867     0.13840
C864        C  0.31372513  0.48228386  0.62889665    -0.20520
C865        C  0.33553447  0.46038359  0.61523676    -0.07030
C866        C  0.32006118  0.43161693  0.57150809     0.13830
C867        C  0.34144083  0.40713355  0.55178795    -0.23860
H868        H  0.27590154  0.40882074  0.50686833     0.15120
H869        H  0.32178478  0.50013733  0.66542812     0.15140
C870        C  0.23868226  0.45376578  0.64567891    -0.23810
H871        H  0.32659485  0.38932031  0.51495023     0.05360
H872        H  0.33815271  0.38265069  0.58093716     0.08580
H873        H  0.37590734  0.43018191  0.54326750     0.08580
H874        H  0.20898109  0.42538695  0.63081409     0.08570
H875        H  0.23283045  0.47946832  0.66025296     0.08570
H876        H  0.24728749  0.44123496  0.68080747     0.05340
C877        C  0.17780674  0.49045514  0.87022578    -0.20460
C878        C  0.13676303  0.48253648  0.88544534    -0.07030
C879        C  0.12998320  0.48736527  0.93855357     0.13840
C880        C  0.16120275  0.49323167  0.97495188    -0.20520
C881        C  0.19907436  0.49190760  0.96206821    -0.07030
C882        C  0.21017484  0.49857632  0.90786802     0.13830
C883        C  0.25576866  0.52685764  0.88951890    -0.23860
H884        H  0.18579592  0.49391607  0.82895048     0.15120
H885        H  0.15406432  0.49751724  0.01458836     0.15140
C886        C  0.09027150  0.48763240  0.95788654    -0.23810
H887        H  0.25793408  0.55394268  0.86577977     0.05360
H888        H  0.26607004  0.50849389  0.86425047     0.08580
H889        H  0.27801888  0.54253033  0.92271949     0.08580
H890        H  0.06139589  0.45552609  0.95142278     0.08570
H891        H  0.08697951  0.51321396  0.93748631     0.08570
H892        H  0.09157231  0.49424029  0.00049082     0.05340
C893        C  0.16010309  0.43443245  0.56641787    -0.20460
C894        C  0.19790165  0.47442689  0.55851250    -0.07030
C895        C  0.20595037  0.51032487  0.58973744     0.13840
C896        C  0.17563517  0.50546548  0.62740854    -0.20520
C897        C  0.13527026  0.46725120  0.63077568    -0.07030
C898        C  0.12833409  0.43044392  0.60163286     0.13830
C899        C  0.08758008  0.38711722  0.60616956    -0.23860
H900        H  0.15397710  0.40732939  0.54155681     0.15120
H901        H  0.18256442  0.53320076  0.65142933     0.15140
C902        C  0.24517566  0.55445011  0.58275638    -0.23810
H903        H  0.09005436  0.36152327  0.58443589     0.05360
H904        H  0.05989676  0.38868739  0.58932662     0.08580
H905        H  0.08128923  0.37717375  0.64785564     0.08580
H906        H  0.26671294  0.55525852  0.55127577     0.08570
H907        H  0.26392963  0.56454958  0.61975603     0.08570
H908        H  0.23495243  0.57822445  0.57277589     0.05340
C909        C  0.46031312  0.66102630  0.92962658    -0.20460
C910        C  0.49970069  0.69554618  0.94719271    -0.07030
C911        C  0.53793503  0.70466439  0.92028274     0.13840
C912        C  0.53617013  0.67481829  0.88300146    -0.20520
C913        C  0.49666685  0.63941931  0.86702448    -0.07030
C914        C  0.45812590  0.63551618  0.88689615     0.13830
C915        C  0.41470710  0.60492525  0.86354585    -0.23860
H916        H  0.43077441  0.65384527  0.94904583     0.15120
H917        H  0.56573890  0.67939026  0.86563549     0.15140
C918        C  0.58017573  0.74604187  0.92827058    -0.23810
H919        H  0.38797103  0.60477209  0.88566192     0.05360
H920        H  0.40918895  0.57173959  0.86287344     0.08580
H921        H  0.41357454  0.61494414  0.82274642     0.08580
H922        H  0.58916516  0.75296842  0.96980525     0.08570
H923        H  0.57783314  0.77325934  0.91137424     0.08570
H924        H  0.60701509  0.74516809  0.90776169     0.05340
C925        C  0.53550909  0.69031858  0.55633733    -0.20460
C926        C  0.49871893  0.69326507  0.54608960    -0.07030
C927        C  0.46126145  0.66771026  0.57640954     0.13840
C928        C  0.46116329  0.63804736  0.61320937    -0.20520
C929        C  0.49771702  0.63363028  0.62104828    -0.07030
C930        C  0.53619907  0.66229623  0.59388671     0.13830
C931        C  0.57872838  0.66419456  0.60334245    -0.23860
H932        H  0.56418307  0.70922847  0.53359067     0.15120
H933        H  0.43181589  0.61708838  0.63448868     0.15140
C934        C  0.42100086  0.67043996  0.56945039    -0.23810
H935        H  0.60587872  0.69227385  0.58339666     0.05360
H936        H  0.57780011  0.63479721  0.58766921     0.08580
H937        H  0.58617205  0.66773595  0.64583305     0.08580
H938        H  0.40893133  0.66224891  0.52887979     0.08570
H939        H  0.42773404  0.70351215  0.57885788     0.08570
H940        H  0.39476403  0.64766868  0.59580837     0.05340
C941        C  0.47576633  0.80019789  0.87519562    -0.20460
C942        C  0.51259103  0.84165094  0.87249541    -0.07030
C943        C  0.54837061  0.85096069  0.90505914     0.13840
C944        C  0.54439061  0.82039892  0.94234153    -0.20520
C945        C  0.50608850  0.78073938  0.94819505    -0.07030
C946        C  0.47147420  0.77029895  0.91354889     0.13830
C947        C  0.42788076  0.73048352  0.91922347    -0.23860
H948        H  0.44818654  0.79226707  0.85048011     0.15120
H949        H  0.57074575  0.82839439  0.96925180     0.15140
C950        C  0.59073842  0.89295526  0.90205016    -0.23810
H951        H  0.40305400  0.74015812  0.91959926     0.05360
H952        H  0.42437099  0.71310822  0.95624763     0.08580
H953        H  0.42159103  0.70853917  0.88546580     0.08580
H954        H  0.58705686  0.92010191  0.91682962     0.08570
H955        H  0.60253303  0.89916717  0.86105805     0.08570
H956        H  0.61593678  0.89208743  0.92645121     0.05340
C957        C  0.52873877  0.82566283  0.62166650    -0.20460
C958        C  0.49780722  0.83852062  0.61802670    -0.07030
C959        C  0.46687939  0.82178491  0.57781811     0.13840
C960        C  0.46582775  0.79053257  0.54400347    -0.20520
C961        C  0.49799790  0.77892891  0.54517961    -0.07030
C962        C  0.53062598  0.79781010  0.58408571     0.13830
C963        C  0.57005453  0.79324416  0.58434820    -0.23860
H964        H  0.55347379  0.83999174  0.65155572     0.15120
H965        H  0.44164588  0.77773413  0.51347562     0.15140
C966        C  0.43733303  0.83966298  0.56789963    -0.23810
H967        H  0.59940903  0.82579125  0.58622406     0.05360
H968        H  0.57299278  0.77789227  0.54840651     0.08580
H969        H  0.56940369  0.77421172  0.61902155     0.08580
H970        H  0.45680656  0.87497751  0.56022728     0.08570
H971        H  0.41673956  0.83425646  0.60242228     0.08570
H972        H  0.41628483  0.82452564  0.53345976     0.05340
C973        C  0.79698490  0.31667586  0.54087669    -0.20460
C974        C  0.78375269  0.27252688  0.54833975    -0.07030
C975        C  0.79784422  0.26104184  0.59480251     0.13840
C976        C  0.82552518  0.29367698  0.62976121    -0.20520
C977        C  0.84218406  0.33734591  0.61812018    -0.07030
C978        C  0.82832919  0.34911317  0.57282524     0.13830
C979        C  0.84981621  0.39560930  0.55533242    -0.23860
H980        H  0.78689546  0.32632341  0.50586707     0.15120
H981        H  0.83688900  0.28527504  0.66470780     0.15140
C982        C  0.78870782  0.21607767  0.60634398    -0.23810
H983        H  0.83449814  0.39972868  0.51969235     0.05360
H984        H  0.88422130  0.40727140  0.54638722     0.08580
H985        H  0.84844690  0.41596567  0.58684405     0.08580
H986        H  0.79567224  0.20227513  0.57162833     0.08570
H987        H  0.75521195  0.19620050  0.62018289     0.08570
H988        H  0.80937411  0.21556110  0.63839863     0.05340
C989        C  0.77600798  0.27797889  0.90991560    -0.20460
C990        C  0.79315958  0.26534759  0.95145700    -0.07030
C991        C  0.83715803  0.27731461  0.94959070     0.13840
C992        C  0.86332793  0.30502616  0.91010550    -0.20520
C993        C  0.84716222  0.32096586  0.87108651    -0.07030
C994        C  0.80193460  0.30332693  0.86808259     0.13830
C995        C  0.78024959  0.30835622  0.82019206    -0.23860
H996        H  0.74251213  0.26928187  0.91070026     0.15120
H997        H  0.89742629  0.31578305  0.91160587     0.15140
C998        C  0.85775094  0.26265955  0.99009586    -0.23810
H999        H  0.74456574  0.28965436  0.82378103     0.05360
H1000       H  0.78924039  0.29593041  0.78547287     0.08580
H1001       H  0.78955988  0.34236331  0.81318672     0.08580
H1002       H  0.83894273  0.22705243  0.99479048     0.08570
H1003       H  0.86056766  0.27884195  0.52793466     0.08570
H1004       H  0.89100329  0.27121011  0.97882136     0.05340
C1005       C  0.67290698  0.19351049  0.93093061    -0.20460
C1006       C  0.70711119  0.18709874  0.94549403    -0.07030
C1007       C  0.71544990  0.15927013  0.91448234     0.13840
C1008       C  0.68427293  0.13185748  0.87826854    -0.20520
C1009       C  0.64796378  0.13558455  0.86716948    -0.07030
C1010       C  0.64516946  0.17034019  0.88947509     0.13830
C1011       C  0.61409259  0.18385956  0.86960232    -0.23860
H1012       H  0.66814183  0.21710592  0.95200257     0.15120
H1013       H  0.68850752  0.10750325  0.85818186     0.15140
C1014       C  0.75675579  0.15822989  0.91678559    -0.23810
H1015       H  0.61596691  0.21108441  0.89272360     0.05360
H1016       H  0.58054896  0.15690462  0.87098595     0.08580
H1017       H  0.62211253  0.19475521  0.82839187     0.08580
H1018       H  0.78041621  0.18276350  0.94368808     0.08570
H1019       H  0.77180278  0.16550398  0.87738850     0.08570
H1020       H  0.75015624  0.12558532  0.92872668     0.05340
C1021       C  0.67383523  0.19592573  0.56366497    -0.20460
C1022       C  0.70169910  0.18274804  0.54277073    -0.07030
C1023       C  0.69631428  0.14229637  0.55844193     0.13840
C1024       C  0.66431523  0.11689197  0.59428955    -0.20520
C1025       C  0.63521124  0.12879339  0.61384894    -0.07030
C1026       C  0.63975738  0.16891303  0.59764934     0.13830
C1027       C  0.60780623  0.18294391  0.61122692    -0.23860
H1028       H  0.67663819  0.22602595  0.55024833     0.15120
H1029       H  0.66180146  0.08662024  0.60653315     0.15140
C1030       C  0.72440047  0.12484749  0.53983323    -0.23810
H1031       H  0.62396694  0.21290763  0.63514689     0.05360
H1032       H  0.57935798  0.15804187  0.63251918     0.08580
H1033       H  0.59549684  0.18982091  0.57472031     0.08580
H1034       H  0.75237428  0.14884649  0.51761249     0.08570
H1035       H  0.70517310  0.09563355  0.51536756     0.08570
H1036       H  0.73745559  0.11590256  0.57400597     0.05340
C1037       C  0.50805811  0.28181083  0.92321818    -0.20460
C1038       C  0.47307327  0.26351785  0.95804180    -0.07030
C1039       C  0.43963555  0.27316465  0.95151068     0.13840
C1040       C  0.44425970  0.30420156  0.91509493    -0.20520
C1041       C  0.48108605  0.32608422  0.88342087    -0.07030
C1042       C  0.51260440  0.31301263  0.88586145     0.13830
C1043       C  0.55158564  0.33217684  0.85076185    -0.23860
H1044       H  0.53304533  0.27341256  0.92712356     0.15120
H1045       H  0.41847228  0.31158494  0.91223868     0.15140
C1046       C  0.39808938  0.25115026  0.98210036    -0.23810
H1047       H  0.57250366  0.31809817  0.85852230     0.05360
H1048       H  0.57131577  0.36756839  0.85720269     0.08580
H1049       H  0.54122379  0.32550775  0.80923107     0.08580
H1050       H  0.39620492  0.27474620  0.50868748     0.08570
H1051       H  0.39438348  0.22336223  0.00521813     0.08570
H1052       H  0.37026980  0.23788223  0.45478143     0.05340
C1053       C  0.44651832  0.25376284  0.59133214    -0.20460
C1054       C  0.48071476  0.26639002  0.55594456    -0.07030
C1055       C  0.51936681  0.30592658  0.56436799     0.13840
C1056       C  0.52061102  0.33479585  0.60221391    -0.20520
C1057       C  0.48488019  0.32412614  0.63390969    -0.07030
C1058       C  0.44798215  0.28243689  0.62997624     0.13830
C1059       C  0.40992339  0.26842822  0.66580159    -0.23860
H1060       H  0.41779185  0.22233557  0.58716840     0.15120
H1061       H  0.54894254  0.36663258  0.60513796     0.15140
C1062       C  0.55940372  0.31877294  0.53296587    -0.23810
H1063       H  0.38479005  0.23415715  0.65894725     0.05360
H1064       H  0.39493475  0.28862105  0.65912156     0.08580
H1065       H  0.42061558  0.27167084  0.70715723     0.08580
H1066       H  0.56198153  0.34179918  0.00203714     0.08570
H1067       H  0.55893142  0.29034767  0.51482608     0.08570
H1068       H  0.58829483  0.33435711  0.55865072     0.05340
C1069       C  0.45989798  0.14224705  0.87693700    -0.20460
C1070       C  0.48434888  0.12281446  0.88931643    -0.07030
C1071       C  0.50561973  0.13150907  0.93785634     0.13840
C1072       C  0.50503551  0.16241214  0.97081801    -0.20520
C1073       C  0.47733142  0.17909763  0.96153589    -0.07030
C1074       C  0.45344483  0.16762459  0.91396632     0.13830
C1075       C  0.41677698  0.17564111  0.90368993    -0.23860
H1076       H  0.44200195  0.13371636  0.84046800     0.15120
H1077       H  0.52304438  0.17010579  0.00710165     0.15140
C1078       C  0.52536143  0.10536978  0.95745591    -0.23810
H1079       H  0.38821889  0.14543210  0.88953860     0.05360
H1080       H  0.42619503  0.20108397  0.87338998     0.08580
H1081       H  0.40618628  0.18456920  0.93965104     0.08580
H1082       H  0.54944170  0.10624183  0.92976826     0.08570
H1083       H  0.49958709  0.07111298  0.96234773     0.08570
H1084       H  0.54140880  0.11719704  0.99597931     0.05340
C1085       C  0.49476400  0.19395615  0.59750584    -0.20460
C1086       C  0.46289600  0.17706673  0.55841240    -0.07030
C1087       C  0.42723224  0.13496905  0.56456387     0.13840
C1088       C  0.42792245  0.10851238  0.60439010    -0.20520
C1089       C  0.46261724  0.12362588  0.63974570    -0.07030
C1090       C  0.49307733  0.16864664  0.64036387     0.13830
C1091       C  0.52268095  0.19170657  0.68579363    -0.23860
H1092       H  0.52151430  0.22678753  0.59436401     0.15120
H1093       H  0.40227490  0.07501829  0.60569263     0.15140
C1094       C  0.38904256  0.11716050  0.52812157    -0.23810
H1095       H  0.55665964  0.20376068  0.67471520     0.05360
H1096       H  0.51939036  0.21999798  0.69679752     0.08580
H1097       H  0.51451712  0.17160319  0.72148733     0.08580
H1098       H  0.39838057  0.11260844  0.48842709     0.08570
H1099       H  0.37618765  0.13966461  0.52652591     0.08570
H1100       H  0.36262868  0.08515988  0.54145080     0.05340
C1101       C  0.71563224  0.52742690  0.92340735    -0.20460
C1102       C  0.70317929  0.49168805  0.95675058    -0.07030
C1103       C  0.66144465  0.45516834  0.95023006     0.13840
C1104       C  0.63241921  0.45679260  0.91505302    -0.20520
C1105       C  0.64383096  0.49362562  0.88500087    -0.07030
C1106       C  0.68625608  0.52905913  0.88811069     0.13830
C1107       C  0.70035910  0.56863323  0.85470151    -0.23860
H1108       H  0.74741206  0.55533311  0.92689769     0.15120
H1109       H  0.59992665  0.42939295  0.91234576     0.15140
C1110       C  0.64569389  0.41408423  0.48049561    -0.23810
H1111       H  0.73486217  0.59298808  0.86109444     0.05360
H1112       H  0.68096737  0.58403920  0.86430679     0.08580
H1113       H  0.69589130  0.55932141  0.81274158     0.08580
H1114       H  0.63153745  0.38594916  0.45341775     0.08570
H1115       H  0.67182688  0.41312044  0.50160173     0.08570
H1116       H  0.62098540  0.41105400  0.50893595     0.05340
C1117       C  0.67278242  0.53299156  0.60095668    -0.20460
C1118       C  0.64982123  0.49582625  0.63219392    -0.07030
C1119       C  0.66087668  0.46297265  0.62896829     0.13840
C1120       C  0.68979079  0.46575557  0.59000608    -0.20520
C1121       C  0.70909207  0.50079977  0.55507029    -0.07030
C1122       C  0.70266180  0.53624598  0.56352239     0.13830
C1123       C  0.72654798  0.57813203  0.53390277    -0.23860
H1124       H  0.66690602  0.55982031  0.60487305     0.15120
H1125       H  0.69490277  0.43886488  0.58502183     0.15140
C1126       C  0.64176405  0.42420254  0.66476958    -0.23810
H1127       H  0.70385350  0.58228723  0.50831328     0.05360
H1128       H  0.74124112  0.60553775  0.06212024     0.08580
H1129       H  0.75281333  0.57988994  0.01046547     0.08580
H1130       H  0.60631823  0.40529741  0.66010333     0.08570
H1131       H  0.64999248  0.43507715  0.70598602     0.08570
H1132       H  0.65442839  0.40213622  0.65631077     0.05340
C1133       C  0.82174931  0.53511144  0.57291624    -0.20460
C1134       C  0.78838875  0.49515486  0.55474734    -0.07030
C1135       C  0.78216927  0.45670497  0.57918384     0.13840
C1136       C  0.80996856  0.45952345  0.61930244    -0.20520
C1137       C  0.84688060  0.49880703  0.63178576    -0.07030
C1138       C  0.85202523  0.53750537  0.60965012     0.13830
C1139       C  0.88925382  0.58142608  0.62400585    -0.23860
H1140       H  0.82591038  0.56466493  0.55600982     0.15120
H1141       H  0.80465345  0.42991186  0.63776263     0.15140
C1142       C  0.74834617  0.41173997  0.56311236    -0.23810
H1143       H  0.88566950  0.60796579  0.60667955     0.05360
H1144       H  0.91994349  0.58517716  0.60899384     0.08580
H1145       H  0.89101781  0.58550939  0.66715391     0.08580
H1146       H  0.72710188  0.41165298  0.53221177     0.08570
H1147       H  0.72792052  0.39421516  0.59731958     0.08570
H1148       H  0.76401179  0.39370894  0.54861210     0.05340
C1149       C  0.78325194  0.45416359  0.94025581    -0.20460
C1150       C  0.78856958  0.49407453  0.95644512    -0.07030
C1151       C  0.82263361  0.53244533  0.93405231     0.13840
C1152       C  0.85090964  0.52972771  0.89829663    -0.20520
C1153       C  0.84718215  0.48990843  0.88511864    -0.07030
C1154       C  0.81281290  0.45163166  0.90661068     0.13830
C1155       C  0.80849532  0.40815680  0.89682212    -0.23860
H1156       H  0.75716544  0.42460618  0.95599971     0.15120
H1157       H  0.87711359  0.55925399  0.88190366     0.15140
C1158       C  0.83150106  0.57707712  0.94791542    -0.23810
H1159       H  0.78155044  0.38194341  0.91934302     0.05360
H1160       H  0.83867589  0.40870230  0.90814463     0.08580
H1161       H  0.80184635  0.40057675  0.85483087     0.08580
H1162       H  0.80817068  0.57661645  0.97619186     0.08570
H1163       H  0.82990397  0.59376536  0.91205448     0.08570
H1164       H  0.86423176  0.59603657  0.96520315     0.05340
loop_ 
_geom_bond_atom_site_label_1 
_geom_bond_atom_site_label_2 
_geom_bond_distance 
_geom_bond_site_symmetry_2 
_ccdc_geom_bond_type 
C1          C568   1.499       .  S
C1         C1134   1.497       .  S
C1          C584   1.369       .  D
C2          C539   1.503       .  S
C2         C1102   1.504   1_554  S
C2          C583   1.368       .  D
C3          C504   1.497       .  S
C3         C1073   1.507   1_554  S
C3            C4   1.366       .  D
C4          C472   1.498       .  S
C4         C1038   1.494   1_554  S
C5          C440   1.493   1_556  S
C5         C1006   1.499       .  S
C5          C588   1.372       .  D
C6          C408   1.507       .  S
C6          C974   1.516       .  S
C6          C587   1.373       .  D
C7          C379   1.499   1_556  S
C7          C945   1.492       .  S
C7            C8   1.369       .  D
C8          C344   1.503   1_556  S
C8          C910   1.500       .  S
C9          C299   1.556       .  S
C9          C894   1.481       .  S
C9          C592   1.386       .  D
C10         C280   1.547       .  S
C10         C846   1.501   1_554  S
C10         C591   1.386       .  D
C11         C232   1.491       .  S
C11         C833   1.496       .  S
C11         C594   1.359       .  D
C12         C216   1.495       .  S
C12         C782   1.495   1_554  S
C12         C593   1.359   1_554  D
O13         Zr25   2.420       .  S
O13          C15   1.285       .  A
O14         Zr51   2.446       .  S
O14          C15   1.289       .  A
C15         C411   1.498       .  S
O16         Zr28   2.440   1_455  S
O16          C18   1.290       .  A
O17         Zr52   2.419       .  S
O17          C18   1.284       .  A
C18         C235   1.486       .  S
O19         Zr28   2.449       .  S
O19          C21   1.290       .  A
O20         Zr51   2.429       .  S
O20          C21   1.287       .  A
C21         C571   1.487       .  S
O22         Zr25   2.456   1_455  S
O22          C24   1.292       .  A
O23         Zr52   2.423       .  S
O23          C24   1.284       .  A
C24         C296   1.484       .  S
Zr25         O26   2.433       .  S
Zr25         O27   2.434       .  S
Zr25         O31   2.376       .  S
Zr25         O32   2.364   1_655  S
Zr25         O55   2.360   1_655  S
Zr25         O57   2.374       .  S
O26          H69   0.990       .  S
O27          H68   0.990       .  S
O27          H72   0.990       .  S
Zr28         O29   2.437       .  S
Zr28         O30   2.435       .  S
Zr28         O32   2.366   1_655  S
Zr28         O31   2.372       .  S
Zr28         O56   2.365       .  S
Zr28         O58   2.375   1_655  S
O29          H70   0.990   1_655  S
O29          H73   0.990   1_655  S
O30          H63   0.990       .  S
O31         Zr51   2.379       .  S
O32         Zr52   2.380       .  S
O32          H59   0.963       .  S
O33         Zr45   2.440   1_455  S
O33          C35   1.287       .  A
O34         Zr52   2.416       .  S
O34          C35   1.286       .  A
C35         C315   1.489       .  S
O36         Zr48   2.429       .  S
O36          C38   1.285       .  A
O37         Zr51   2.432       .  S
O37          C38   1.289       .  A
C38         C555   1.484       .  S
O39         Zr48   2.441   1_455  S
O39          C41   1.287       .  A
O40         Zr52   2.415       .  S
O40          C41   1.284       .  A
C41         C248   1.467       .  S
O42         Zr45   2.445       .  S
O42          C44   1.288       .  A
O43         Zr51   2.421       .  S
O43          C44   1.285       .  A
C44         C395   1.470       .  S
Zr45         O46   2.438       .  S
Zr45         O47   2.434       .  S
Zr45         O53   2.369   1_655  S
Zr45         O54   2.370       .  S
Zr45         O57   2.364       .  S
Zr45         O55   2.375   1_655  S
O46          H66   0.990   1_655  S
O46          H71   0.990       .  S
O47          H67   0.990   1_655  S
Zr48         O49   2.435       .  S
Zr48         O50   2.434       .  S
Zr48         O54   2.372       .  S
Zr48         O53   2.372   1_655  S
Zr48         O58   2.366   1_655  S
Zr48         O56   2.374       .  S
O49          H65   0.990       .  S
O50          H64   0.990   1_655  S
O50          H74   0.990   1_655  S
Zr51         O54   2.383       .  S
Zr51         O56   2.388       .  S
Zr51         O57   2.389       .  S
Zr52         O53   2.385       .  S
Zr52         O55   2.382       .  S
Zr52         O58   2.386       .  S
O53          H61   0.966       .  S
O56          H60   0.966       .  S
O57          H62   0.966       .  S
O75         Zr87   2.424       .  S
O75          C77   1.284       .  A
O76        Zr113   2.437       .  S
O76          C77   1.288       .  A
C77         C475   1.473       .  S
O78         Zr90   2.434       .  S
O78          C80   1.285       .  A
O79        Zr114   2.446       .  S
O79          C80   1.290       .  A
C80         C347   1.499       .  S
O81         Zr90   2.424       .  S
O81          C83   1.286       .  A
O82        Zr113   2.436       .  S
O82          C83   1.288       .  A
C83         C536   1.493       .  S
O84         Zr87   2.401       .  S
O84          C86   1.278       .  A
O85        Zr114   2.455       .  S
O85          C86   1.294       .  A
C86         C283   1.491       .  S
Zr87         O88   2.434       .  S
Zr87         O89   2.434       .  S
Zr87         O93   2.364       .  S
Zr87         O94   2.369       .  S
Zr87        O117   2.375       .  S
Zr87        O119   2.357       .  S
O88         H131   0.990       .  S
O89         H130   0.990       .  S
O89         H134   0.990       .  S
Zr90         O91   2.437       .  S
Zr90         O92   2.435       .  S
Zr90         O94   2.360       .  S
Zr90         O93   2.370       .  S
Zr90        O118   2.368       .  S
Zr90        O120   2.364       .  S
O91         H132   0.990       .  S
O91         H135   0.990       .  S
O92         H125   0.990       .  S
O93        Zr113   2.376       .  S
O94        Zr114   2.387       .  S
O94         H121   0.966       .  S
O95        Zr107   2.448       .  S
O95          C97   1.288       .  A
O96        Zr114   2.459       .  S
O96          C97   1.293       .  A
C97         C267   1.487       .  S
O98        Zr110   2.458       .  S
O98         C100   1.291       .  A
O99        Zr113   2.416       .  S
O99         C100   1.285       .  A
C100        C523   1.477       .  S
O101       Zr110   2.443       .  S
O101        C103   1.289       .  A
O102       Zr114   2.430       .  S
O102        C103   1.288       .  A
C103        C331   1.485       .  S
O104       Zr107   2.440       .  S
O104        C106   1.290       .  A
O105       Zr113   2.431       .  S
O105        C106   1.286       .  A
C106        C459   1.499       .  S
Zr107       O108   2.437       .  S
Zr107       O109   2.434       .  S
Zr107       O115   2.370       .  S
Zr107       O116   2.373       .  S
Zr107       O119   2.371       .  S
Zr107       O117   2.375       .  S
O108        H128   0.990       .  S
O108        H133   0.990       .  S
O109        H129   0.990       .  S
Zr110       O111   2.435       .  S
Zr110       O112   2.434       .  S
Zr110       O116   2.371       .  S
Zr110       O115   2.376       .  S
Zr110       O120   2.374       .  S
Zr110       O118   2.364       .  S
O111        H127   0.990       .  S
O112        H126   0.990       .  S
O112        H136   0.990       .  S
Zr113       O116   2.387       .  S
Zr113       O118   2.388       .  S
Zr113       O119   2.386       .  S
Zr114       O115   2.395       .  S
Zr114       O117   2.389       .  S
Zr114       O120   2.393       .  S
O115        H123   0.966       .  S
O118        H122   0.966       .  S
O119        H124   0.966       .  S
O137       Zr149   2.421   1_545  S
O137        C139   1.286       .  A
O138       Zr175   2.445       .  S
O138        C139   1.289       .  A
C139        C443   1.490       .  S
O140       Zr152   2.420       .  S
O140        C142   1.286       .  A
O141       Zr176   2.442       .  S
O141        C142   1.288       .  A
C142        C219   1.500       .  S
O143       Zr152   2.437   1_545  S
O143        C145   1.289       .  A
O144       Zr175   2.419       .  S
O144        C145   1.284       .  A
C145        C507   1.493       .  S
O146       Zr149   2.448       .  S
O146        C148   1.288       .  A
O147       Zr176   2.419       .  S
O147        C148   1.284       .  A
C148        C376   1.471       .  S
Zr149       O150   2.434       .  S
Zr149       O151   2.436       .  S
Zr149       O155   2.378   1_565  S
Zr149       O156   2.360       .  S
Zr149       O179   2.365       .  S
Zr149       O181   2.371   1_565  S
O150        H193   0.990       .  S
O151        H192   0.990   1_565  S
O151        H196   0.990       .  S
Zr152       O153   2.437       .  S
Zr152       O154   2.434       .  S
Zr152       O156   2.370       .  S
Zr152       O155   2.364   1_565  S
Zr152       O180   2.363   1_565  S
Zr152       O182   2.371       .  S
O153        H194   0.990       .  S
O153        H197   0.990       .  S
O154        H187   0.990       .  S
O155       Zr175   2.381       .  S
O156       Zr176   2.382       .  S
O156        H183   0.965       .  S
O157       Zr169   2.433       .  S
O157        C159   1.285       .  A
O158       Zr176   2.425       .  S
O158        C159   1.288       .  A
C159        C360   1.491       .  S
O160       Zr172   2.434   1_545  S
O160        C162   1.287       .  A
O161       Zr175   2.430       .  S
O161        C162   1.287       .  A
C162        C488   1.468       .  S
O163       Zr172   2.453       .  S
O163        C165   1.290       .  A
O164       Zr176   2.416       .  S
O164        C165   1.284       .  A
C165        C203   1.475       .  S
O166       Zr169   2.451   1_545  S
O166        C168   1.291       .  A
O167       Zr175   2.418       .  S
O167        C168   1.284       .  A
C168        C427   1.483       .  S
Zr169       O170   2.437       .  S
Zr169       O171   2.433       .  S
Zr169       O177   2.376       .  S
Zr169       O178   2.362   1_565  S
Zr169       O181   2.368   1_565  S
Zr169       O179   2.378       .  S
O170        H190   0.990       .  S
O170        H195   0.990       .  S
O171        H191   0.990       .  S
Zr172       O173   2.434       .  S
Zr172       O174   2.434       .  S
Zr172       O178   2.377   1_565  S
Zr172       O177   2.364       .  S
Zr172       O182   2.365       .  S
Zr172       O180   2.369   1_565  S
O173        H189   0.990       .  S
O174        H188   0.990       .  S
O174        H198   0.990       .  S
Zr175       O178   2.385       .  S
Zr175       O180   2.389       .  S
Zr175       O181   2.388       .  S
Zr176       O177   2.389       .  S
Zr176       O179   2.385       .  S
Zr176       O182   2.386       .  S
O177        H185   0.966       .  S
O180        H184   0.966       .  S
O181        H186   0.966       .  S
C199        C200   1.403       .  A
C199        C204   1.403       .  A
C199        H206   1.081       .  S
C200        C594   1.495       .  S
C200        C201   1.412       .  A
C201        C202   1.404       .  A
C201        C790   1.505       .  S
C202        C203   1.404       .  A
C202        H207   1.085       .  S
C203        C204   1.412       .  A
C204        C205   1.506       .  S
C205        H209   1.111       .  S
C205        H210   1.111       .  S
C205        H211   1.109       .  S
C208        C783   1.505       .  S
C208        H212   1.106       .  S
C208        H213   1.107       .  S
C208        H214   1.107       .  S
C215        C216   1.407       .  A
C215        C220   1.414       .  A
C215        H222   1.083       .  S
C216        C217   1.413       .  A
C217        C218   1.390       .  A
C217        C224   1.509       .  S
C218        C219   1.408       .  A
C218        H223   1.084       .  S
C219        C220   1.423       .  A
C220        C221   1.507       .  S
C221        H225   1.111       .  S
C221        H226   1.110       .  S
C221        H227   1.108       .  S
C224        H228   1.102   1_554  S
C224        H229   1.110   1_554  S
C224        H230   1.111       .  S
C231        C232   1.403       .  A
C231        C236   1.406       .  A
C231        H238   1.084       .  S
C232        C233   1.410       .  A
C233        C234   1.397       .  A
C233        C240   1.506       .  S
C234        C235   1.405       .  A
C234        H239   1.084       .  S
C235        C236   1.421       .  A
C236        C237   1.507       .  S
C237        H241   1.111       .  S
C237        H242   1.110       .  S
C237        H243   1.109       .  S
C240        H244   1.109       .  S
C240        H245   1.106       .  S
C240        H246   1.111       .  S
C247        C248   1.399       .  A
C247        C252   1.405       .  A
C247        H254   1.085       .  S
C248        C249   1.407       .  A
C249        C250   1.394       .  A
C249        C256   1.505       .  S
C250        C251   1.405       .  A
C250        H255   1.082       .  S
C251        C593   1.495   1_554  S
C251        C252   1.421       .  A
C252        C253   1.502       .  S
C253        H257   1.111       .  S
C253        H258   1.099       .  S
C253        H259   1.110       .  S
C256        H260   1.110       .  S
C256        H261   1.102       .  S
C256        H262   1.111       .  S
C263        C264   1.411       .  A
C263        C268   1.416       .  A
C263        H270   1.083       .  S
C264        C592   1.503       .  S
C264        C265   1.421       .  A
C265        C266   1.399       .  A
C265        C854   1.509       .  S
C266        C267   1.399       .  A
C266        H271   1.083       .  S
C267        C268   1.414       .  A
C268        C269   1.504       .  S
C269        H273   1.111       .  S
C269        H274   1.110       .  S
C269        H275   1.110       .  S
C272        C847   1.510       .  S
C272        H276   1.106   1_556  S
C272        H277   1.109       .  S
C272        H278   1.111       .  S
C279        C280   1.406       .  A
C279        C284   1.400       .  A
C279        H286   1.082       .  S
C280        C281   1.427       .  A
C281        C282   1.403       .  A
C281        C288   1.515       .  S
C282        C283   1.401       .  A
C282        H287   1.085       .  S
C283        C284   1.427       .  A
C284        C285   1.511       .  S
C285        H289   1.111       .  S
C285        H290   1.109       .  S
C285        H291   1.110       .  S
C288        H292   1.107       .  S
C288        H293   1.104       .  S
C288        H294   1.114       .  S
C295        C296   1.410       .  A
C295        C300   1.422       .  A
C295        H302   1.084       .  S
C296        C297   1.405       .  A
C297        C298   1.385       .  A
C297        C304   1.513       .  S
C298        C299   1.422       .  A
C298        H303   1.074       .  S
C299        C300   1.427       .  A
C300        C301   1.503       .  S
C301        H305   1.111       .  S
C301        H306   1.108       .  S
C301        H307   1.107       .  S
C304        H308   1.105       .  S
C304        H309   1.109       .  S
C304        H310   1.111       .  S
C311        C312   1.404       .  A
C311        C316   1.402       .  A
C311        H318   1.084       .  S
C312        C591   1.482       .  S
C312        C313   1.412       .  A
C313        C314   1.399       .  A
C313        C320   1.506       .  S
C314        C315   1.409       .  A
C314        H319   1.083       .  S
C315        C316   1.421       .  A
C316        C317   1.508       .  S
C317        H321   1.111       .  S
C317        H322   1.109       .  S
C317        H323   1.110       .  S
C320        H324   1.107       .  S
C320        H325   1.110       .  S
C320        H326   1.111       .  S
C327        C328   1.403       .  A
C327        C332   1.399       .  A
C327        H334   1.078       .  S
C328        C590   1.499       .  S
C328        C329   1.419       .  A
C329        C330   1.407       .  A
C329        C336   1.508       .  S
C330        C331   1.405       .  A
C330        H335   1.084       .  S
C331        C332   1.413       .  A
C332        C333   1.505       .  S
C333        H337   1.111       .  S
C333        H338   1.100       .  S
C333        H339   1.110       .  S
C336        H340   1.101       .  S
C336        H341   1.105       .  S
C336        H342   1.111       .  S
C343        C344   1.400       .  A
C343        C348   1.396       .  A
C343        H350   1.075       .  S
C344        C345   1.418       .  A
C345        C346   1.416       .  A
C345        C352   1.506       .  S
C346        C347   1.411       .  A
C346        H351   1.084       .  S
C347        C348   1.421       .  A
C348        C349   1.512       .  S
C349        H353   1.111       .  S
C349        H354   1.109       .  S
C349        H355   1.110       .  S
C352        H356   1.105       .  S
C352        H357   1.107       .  S
C352        H358   1.111       .  S
C359        C360   1.407       .  A
C359        C364   1.400       .  A
C359        H366   1.084       .  S
C360        C361   1.421       .  A
C361        C362   1.401       .  A
C361        C368   1.509       .  S
C362        C363   1.401       .  A
C362        H367   1.085       .  S
C363        C589   1.492       .  S
C363        C364   1.414       .  A
C364        C365   1.502       .  S
C365        H369   1.105       .  S
C365        H370   1.104       .  S
C365        H371   1.110       .  S
C368        H372   1.109       .  S
C368        H373   1.110       .  S
C368        H374   1.111       .  S
C375        C376   1.401       .  A
C375        C380   1.409       .  A
C375        H382   1.084       .  S
C376        C377   1.406       .  A
C377        C378   1.398       .  A
C377        C384   1.508       .  S
C378        C379   1.409       .  A
C378        H383   1.082       .  S
C379        C380   1.421       .  A
C380        C381   1.503       .  S
C381        H385   1.111       .  S
C381        H386   1.102       .  S
C381        H387   1.110       .  S
C384        H388   1.111       .  S
C384        H389   1.104       .  S
C384        H390   1.108       .  S
C391        C392   1.413       .  A
C391        C396   1.401       .  A
C391        H398   1.084       .  S
C392        C588   1.516   1_554  S
C392        C393   1.429       .  A
C393        C394   1.407       .  A
C393        C400   1.499       .  S
C394        C395   1.394       .  A
C394        H399   1.085       .  S
C395        C396   1.405       .  A
C396        C397   1.506       .  S
C397        H401   1.111       .  S
C397        H402   1.110       .  S
C397        H403   1.103       .  S
C400        H404   1.103       .  S
C400        H405   1.103       .  S
C400        H406   1.111       .  S
C407        C408   1.410       .  A
C407        C412   1.409       .  A
C407        H414   1.080       .  S
C408        C409   1.414       .  A
C409        C410   1.396       .  A
C409        C416   1.510       .  S
C410        C411   1.409       .  A
C410        H415   1.083       .  S
C411        C412   1.417       .  A
C412        C413   1.508       .  S
C413        H417   1.111       .  S
C413        H418   1.110       .  S
C413        H419   1.101       .  S
C416        H420   1.107       .  S
C416        H422   1.111       .  S
C416       H1003   1.105       .  S
H421        C998   1.105   1_554  S
C423        C424   1.406       .  A
C423        C428   1.403       .  A
C423        H430   1.084       .  S
C424        C587   1.499       .  S
C424        C425   1.416       .  A
C425        C426   1.402       .  A
C425        C432   1.502       .  S
C426        C427   1.403       .  A
C426        H431   1.085       .  S
C427        C428   1.415       .  A
C428        C429   1.508       .  S
C429        H433   1.111       .  S
C429        H434   1.101       .  S
C429        H435   1.110       .  S
C432        H436   1.102       .  S
C432        H437   1.110       .  S
C432        H438   1.110       .  S
C439        C440   1.407       .  A
C439        C444   1.413       .  A
C439        H446   1.084       .  S
C440        C441   1.416       .  A
C441        C442   1.391       .  A
C441        C448   1.504       .  S
C442        C443   1.402       .  A
C442        H447   1.085       .  S
C443        C444   1.420       .  A
C444        C445   1.504       .  S
C445        H449   1.110       .  S
C445        H450   1.104       .  S
C445        H451   1.111       .  S
C448        H452   1.096       .  S
C448        H453   1.110       .  S
C448        H454   1.111       .  S
C455        C456   1.404       .  A
C455        C460   1.414       .  A
C455        H462   1.083       .  S
C456        C586   1.494       .  S
C456        C457   1.414       .  A
C457        C458   1.392       .  A
C457        C464   1.508       .  S
C458        C459   1.406       .  A
C458        H463   1.084       .  S
C459        C460   1.425       .  A
C460        C461   1.506       .  S
C461        H465   1.111       .  S
C461        H466   1.108       .  S
C461        H467   1.110       .  S
C464        H469   1.105       .  S
C464       H1050   1.110       .  S
C464       H1052   1.111       .  S
H468       C1046   1.110   1_554  S
H470       C1046   1.111       .  S
C471        C472   1.404       .  A
C471        C476   1.405       .  A
C471        H478   1.082       .  S
C472        C473   1.413       .  A
C473        C474   1.398       .  A
C473        C480   1.502       .  S
C474        C475   1.398       .  A
C474        H479   1.082       .  S
C475        C476   1.414       .  A
C476        C477   1.506       .  S
C477        H481   1.111       .  S
C477        H482   1.108       .  S
C477        H483   1.110       .  S
C480        H485   1.109       .  S
C480        H486   1.111       .  S
C480       H1066   1.107       .  S
H484       C1062   1.107       .  S
C487        C488   1.401       .  A
C487        C492   1.408       .  A
C487        H494   1.085       .  S
C488        C489   1.407       .  A
C489        C490   1.397       .  A
C489        C496   1.513       .  S
C490        C491   1.412       .  A
C490        H495   1.083       .  S
C491        C585   1.507       .  S
C491        C492   1.424       .  A
C492        C493   1.503       .  S
C493        H497   1.111       .  S
C493        H498   1.110       .  S
C493        H499   1.101       .  S
C496        H500   1.105       .  S
C496        H501   1.110       .  S
C496        H502   1.111       .  S
C503        C504   1.405       .  A
C503        C508   1.403       .  A
C503        H510   1.083       .  S
C504        C505   1.411       .  A
C505        C506   1.398       .  A
C505        C512   1.507       .  S
C506        C507   1.407       .  A
C506        H511   1.083       .  S
C507        C508   1.420       .  A
C508        C509   1.508       .  S
C509        H513   1.107       .  S
C509        H514   1.111       .  S
C509        H515   1.106       .  S
C512        H516   1.106   1_554  S
C512        H517   1.110       .  S
C512        H518   1.111       .  S
C519        C520   1.409       .  A
C519        C524   1.410       .  A
C519        H526   1.077       .  S
C520        C584   1.504       .  S
C520        C521   1.418       .  A
C521        C522   1.398       .  A
C521       C1110   1.499       .  S
C522        C523   1.396       .  A
C522        H527   1.084       .  S
C523        C524   1.411       .  A
C524        C525   1.505       .  S
C525        H529   1.111       .  S
C525        H530   1.110       .  S
C525        H531   1.110       .  S
C528       C1103   1.499       .  S
C528        H532   1.111       .  S
C528        H533   1.097   1_556  S
C528        H534   1.109   1_556  S
C535        C536   1.408       .  A
C535        C540   1.398       .  A
C535        H542   1.084       .  S
C536        C537   1.418       .  A
C537        C538   1.406       .  A
C537        C544   1.508       .  S
C538        C539   1.405       .  A
C538        H543   1.072       .  S
C539        C540   1.413       .  A
C540        C541   1.503       .  S
C541        H545   1.110       .  S
C541       H1128   1.111       .  S
C541       H1129   1.100       .  S
C544        H548   1.106       .  S
C544        H549   1.110       .  S
C544        H550   1.111       .  S
H546       C1123   1.111       .  S
H547       C1123   1.100       .  S
C551        C552   1.403       .  A
C551        C556   1.405       .  A
C551        H558   1.080       .  S
C552        C583   1.496       .  S
C552        C553   1.421       .  A
C553        C554   1.398       .  A
C553        C560   1.504       .  S
C554        C555   1.399       .  A
C554        H559   1.084       .  S
C555        C556   1.417       .  A
C556        C557   1.508       .  S
C557        H561   1.111       .  S
C557        H562   1.109       .  S
C557        H563   1.110       .  S
C560        H564   1.096       .  S
C560        H565   1.111       .  S
C560        H566   1.110       .  S
C567        C568   1.403       .  A
C567        C572   1.404       .  A
C567        H574   1.077       .  S
C568        C569   1.421       .  A
C569        C570   1.405       .  A
C569        C576   1.503       .  S
C570        C571   1.401       .  A
C570        H575   1.085       .  S
C571        C572   1.414       .  A
C572        C573   1.502       .  S
C573        H577   1.111       .  S
C573        H578   1.111       .  S
C573        H579   1.103       .  S
C576        H580   1.100       .  S
C576        H581   1.111       .  S
C576        H582   1.110       .  S
C583       C1150   1.498   1_554  S
C584       C1121   1.503       .  S
C585       C1086   1.497       .  S
C585        C586   1.366       .  D
C586       C1054   1.497       .  S
C587       C1022   1.493       .  S
C588        C990   1.506       .  S
C589        C961   1.499       .  S
C589        C590   1.369       .  D
C590        C926   1.503       .  S
C591        C881   1.558   1_554  S
C592        C862   1.543       .  S
C593        C814   1.491       .  S
C594        C798   1.495       .  S
O595       Zr607   2.418       .  S
O595        C597   1.285       .  A
O596       Zr633   2.446       .  S
O596        C597   1.289       .  A
C597        C993   1.498       .  S
O598       Zr610   2.441   1_455  S
O598        C600   1.290       .  A
O599       Zr634   2.418       .  S
O599        C600   1.284       .  A
C600        C817   1.486       .  S
O601       Zr610   2.448       .  S
O601        C603   1.289       .  A
O602       Zr633   2.429       .  S
O602        C603   1.287       .  A
C603       C1153   1.487       .  S
O604       Zr607   2.454   1_455  S
O604        C606   1.291       .  A
O605       Zr634   2.424       .  S
O605        C606   1.285       .  A
C606        C878   1.482       .  S
Zr607       O608   2.434       .  S
Zr607       O609   2.434       .  S
Zr607       O613   2.376       .  S
Zr607       O614   2.363   1_655  S
Zr607       O637   2.360   1_655  S
Zr607       O639   2.375       .  S
O608        H651   0.990       .  S
O609        H650   0.990       .  S
O609        H654   0.990       .  S
Zr610       O611   2.437       .  S
Zr610       O612   2.435       .  S
Zr610       O614   2.365   1_655  S
Zr610       O613   2.373       .  S
Zr610       O638   2.365       .  S
Zr610       O640   2.374   1_655  S
O611        H652   0.990   1_655  S
O611        H655   0.990   1_655  S
O612        H645   0.990       .  S
O613       Zr633   2.380       .  S
O614       Zr634   2.379       .  S
O614        H641   0.964       .  S
O615       Zr627   2.442   1_455  S
O615        C617   1.287       .  A
O616       Zr634   2.413       .  S
O616        C617   1.285       .  A
C617        C897   1.487       .  S
O618       Zr630   2.429       .  S
O618        C620   1.285       .  A
O619       Zr633   2.433       .  S
O619        C620   1.289       .  A
C620       C1137   1.484       .  S
O621       Zr630   2.440   1_455  S
O621        C623   1.287       .  A
O622       Zr634   2.417       .  S
O622        C623   1.285       .  A
C623        C830   1.467       .  S
O624       Zr627   2.445       .  S
O624        C626   1.288       .  A
O625       Zr633   2.422       .  S
O625        C626   1.285       .  A
C626        C977   1.470       .  S
Zr627       O628   2.438       .  S
Zr627       O629   2.434       .  S
Zr627       O635   2.369   1_655  S
Zr627       O636   2.370       .  S
Zr627       O639   2.364       .  S
Zr627       O637   2.375   1_655  S
O628        H648   0.990   1_655  S
O628        H653   0.990       .  S
O629        H649   0.990   1_655  S
Zr630       O631   2.435       .  S
Zr630       O632   2.434       .  S
Zr630       O636   2.372       .  S
Zr630       O635   2.372   1_655  S
Zr630       O640   2.366   1_655  S
Zr630       O638   2.374       .  S
O631        H647   0.990       .  S
O632        H646   0.990   1_655  S
O632        H656   0.990   1_655  S
Zr633       O636   2.383       .  S
Zr633       O638   2.388       .  S
Zr633       O639   2.390       .  S
Zr634       O635   2.384       .  S
Zr634       O637   2.381       .  S
Zr634       O640   2.385       .  S
O635        H643   0.966       .  S
O638        H642   0.966       .  S
O639        H644   0.966       .  S
O657       Zr669   2.423       .  S
O657        C659   1.284       .  A
O658       Zr695   2.437       .  S
O658        C659   1.288       .  A
C659       C1057   1.473       .  S
O660       Zr672   2.435       .  S
O660        C662   1.285       .  A
O661       Zr696   2.444       .  S
O661        C662   1.290       .  A
C662        C929   1.499       .  S
O663       Zr672   2.423       .  S
O663        C665   1.286       .  A
O664       Zr695   2.436       .  S
O664        C665   1.288       .  A
C665       C1118   1.493       .  S
O666       Zr669   2.401       .  S
O666        C668   1.278       .  A
O667       Zr696   2.452       .  S
O667        C668   1.294       .  A
C668        C865   1.492       .  S
Zr669       O670   2.434       .  S
Zr669       O671   2.434       .  S
Zr669       O675   2.364       .  S
Zr669       O676   2.369       .  S
Zr669       O699   2.375       .  S
Zr669       O701   2.358       .  S
O670        H713   0.990       .  S
O671        H712   0.990       .  S
O671        H716   0.990       .  S
Zr672       O673   2.437       .  S
Zr672       O674   2.435       .  S
Zr672       O676   2.358       .  S
Zr672       O675   2.370       .  S
Zr672       O700   2.369       .  S
Zr672       O702   2.363       .  S
O673        H714   0.990       .  S
O673        H717   0.990       .  S
O674        H707   0.990       .  S
O675       Zr695   2.376       .  S
O676       Zr696   2.385       .  S
O676        H703   0.965       .  S
O677       Zr689   2.448       .  S
O677        C679   1.288       .  A
O678       Zr696   2.457       .  S
O678        C679   1.293       .  A
C679        C849   1.486       .  S
O680       Zr692   2.457       .  S
O680        C682   1.291       .  A
O681       Zr695   2.416       .  S
O681        C682   1.285       .  A
C682       C1105   1.476       .  S
O683       Zr692   2.444       .  S
O683        C685   1.290       .  A
O684       Zr696   2.429       .  S
O684        C685   1.288       .  A
C685        C913   1.485       .  S
O686       Zr689   2.440       .  S
O686        C688   1.290       .  A
O687       Zr695   2.432       .  S
O687        C688   1.286       .  A
C688       C1041   1.500       .  S
Zr689       O690   2.437       .  S
Zr689       O691   2.434       .  S
Zr689       O697   2.370       .  S
Zr689       O698   2.372       .  S
Zr689       O701   2.371       .  S
Zr689       O699   2.375       .  S
O690        H710   0.990       .  S
O690        H715   0.990       .  S
O691        H711   0.990       .  S
Zr692       O693   2.435       .  S
Zr692       O694   2.434       .  S
Zr692       O698   2.371       .  S
Zr692       O697   2.375       .  S
Zr692       O702   2.374       .  S
Zr692       O700   2.365       .  S
O693        H709   0.990       .  S
O694        H708   0.990       .  S
O694        H718   0.990       .  S
Zr695       O698   2.387       .  S
Zr695       O700   2.389       .  S
Zr695       O701   2.385       .  S
Zr696       O697   2.394       .  S
Zr696       O699   2.388       .  S
Zr696       O702   2.392       .  S
O697        H705   0.966       .  S
O700        H704   0.966       .  S
O701        H706   0.966       .  S
O719       Zr731   2.421   1_545  S
O719        C721   1.286       .  A
O720       Zr757   2.446       .  S
O720        C721   1.289       .  A
C721       C1025   1.491       .  S
O722       Zr734   2.420       .  S
O722        C724   1.286       .  A
O723       Zr758   2.442       .  S
O723        C724   1.288       .  A
C724        C801   1.500       .  S
O725       Zr734   2.437   1_545  S
O725        C727   1.289       .  A
O726       Zr757   2.419       .  S
O726        C727   1.284       .  A
C727       C1089   1.493       .  S
O728       Zr731   2.447       .  S
O728        C730   1.288       .  A
O729       Zr758   2.418       .  S
O729        C730   1.284       .  A
C730        C958   1.471       .  S
Zr731       O732   2.434       .  S
Zr731       O733   2.436       .  S
Zr731       O737   2.378   1_565  S
Zr731       O738   2.361       .  S
Zr731       O761   2.365       .  S
Zr731       O763   2.371   1_565  S
O732        H775   0.990       .  S
O733        H774   0.990   1_565  S
O733        H778   0.990       .  S
Zr734       O735   2.437       .  S
Zr734       O736   2.434       .  S
Zr734       O738   2.370       .  S
Zr734       O737   2.364   1_565  S
Zr734       O762   2.364   1_565  S
Zr734       O764   2.371       .  S
O735        H776   0.990       .  S
O735        H779   0.990       .  S
O736        H769   0.990       .  S
O737       Zr757   2.381       .  S
O738       Zr758   2.382       .  S
O738        H765   0.965       .  S
O739       Zr751   2.433       .  S
O739        C741   1.285       .  A
O740       Zr758   2.425       .  S
O740        C741   1.288       .  A
C741        C942   1.491       .  S
O742       Zr754   2.434   1_545  S
O742        C744   1.287       .  A
O743       Zr757   2.431       .  S
O743        C744   1.287       .  A
C744       C1070   1.469       .  S
O745       Zr754   2.453       .  S
O745        C747   1.290       .  A
O746       Zr758   2.416       .  S
O746        C747   1.284       .  A
C747        C785   1.474       .  S
O748       Zr751   2.450   1_545  S
O748        C750   1.291       .  A
O749       Zr757   2.418       .  S
O749        C750   1.284       .  A
C750       C1009   1.482       .  S
Zr751       O752   2.437       .  S
Zr751       O753   2.433       .  S
Zr751       O759   2.376       .  S
Zr751       O760   2.362   1_565  S
Zr751       O763   2.368   1_565  S
Zr751       O761   2.378       .  S
O752        H772   0.990       .  S
O752        H777   0.990       .  S
O753        H773   0.990       .  S
Zr754       O755   2.434       .  S
Zr754       O756   2.434       .  S
Zr754       O760   2.377   1_565  S
Zr754       O759   2.364       .  S
Zr754       O764   2.365       .  S
Zr754       O762   2.369   1_565  S
O755        H771   0.990       .  S
O756        H770   0.990       .  S
O756        H780   0.990       .  S
Zr757       O760   2.385       .  S
Zr757       O762   2.389       .  S
Zr757       O763   2.388       .  S
Zr758       O759   2.388       .  S
Zr758       O761   2.385       .  S
Zr758       O764   2.386       .  S
O759        H767   0.966       .  S
O762        H766   0.966       .  S
O763        H768   0.966       .  S
C781        C782   1.403       .  A
C781        C786   1.403       .  A
C781        H788   1.081       .  S
C782        C783   1.412       .  A
C783        C784   1.404       .  A
C784        C785   1.403       .  A
C784        H789   1.085       .  S
C785        C786   1.412       .  A
C786        C787   1.506       .  S
C787        H791   1.111       .  S
C787        H792   1.111       .  S
C787        H793   1.109       .  S
C790        H794   1.106       .  S
C790        H795   1.107       .  S
C790        H796   1.107       .  S
C797        C798   1.407       .  A
C797        C802   1.414       .  A
C797        H804   1.083       .  S
C798        C799   1.413       .  A
C799        C800   1.390       .  A
C799        C806   1.509       .  S
C800        C801   1.408       .  A
C800        H805   1.084       .  S
C801        C802   1.423       .  A
C802        C803   1.507       .  S
C803        H807   1.111       .  S
C803        H808   1.110       .  S
C803        H809   1.108       .  S
C806        H810   1.102       .  S
C806        H811   1.110       .  S
C806        H812   1.111       .  S
C813        C814   1.403       .  A
C813        C818   1.406       .  A
C813        H820   1.084       .  S
C814        C815   1.410       .  A
C815        C816   1.397       .  A
C815        C822   1.505       .  S
C816        C817   1.404       .  A
C816        H821   1.084       .  S
C817        C818   1.421       .  A
C818        C819   1.508       .  S
C819        H823   1.111       .  S
C819        H824   1.110       .  S
C819        H825   1.109       .  S
C822        H826   1.109       .  S
C822        H827   1.106   1_556  S
C822        H828   1.111       .  S
C829        C830   1.399       .  A
C829        C834   1.406       .  A
C829        H836   1.085       .  S
C830        C831   1.407       .  A
C831        C832   1.394       .  A
C831        C838   1.505       .  S
C832        C833   1.406       .  A
C832        H837   1.082       .  S
C833        C834   1.422       .  A
C834        C835   1.502       .  S
C835        H839   1.111       .  S
C835        H840   1.099       .  S
C835        H841   1.110       .  S
C838        H842   1.110       .  S
C838        H843   1.101       .  S
C838        H844   1.111       .  S
C845        C846   1.410       .  A
C845        C850   1.415       .  A
C845        H852   1.084       .  S
C846        C847   1.419       .  A
C847        C848   1.401       .  A
C848        C849   1.399       .  A
C848        H853   1.082       .  S
C849        C850   1.414       .  A
C850        C851   1.504       .  S
C851        H855   1.111       .  S
C851        H856   1.110       .  S
C851        H857   1.110       .  S
C854        H858   1.111       .  S
C854        H859   1.105       .  S
C854        H860   1.110       .  S
C861        C862   1.405       .  A
C861        C866   1.402       .  A
C861        H868   1.083       .  S
C862        C863   1.427       .  A
C863        C864   1.400       .  A
C863        C870   1.516       .  S
C864        C865   1.400       .  A
C864        H869   1.085       .  S
C865        C866   1.428       .  A
C866        C867   1.510       .  S
C867        H871   1.111       .  S
C867        H872   1.109       .  S
C867        H873   1.110       .  S
C870        H874   1.105       .  S
C870        H875   1.104       .  S
C870        H876   1.114       .  S
C877        C878   1.408       .  A
C877        C882   1.421       .  A
C877        H884   1.084       .  S
C878        C879   1.405       .  A
C879        C880   1.388       .  A
C879        C886   1.513       .  S
C880        C881   1.422       .  A
C880        H885   1.075   1_556  S
C881        C882   1.429       .  A
C882        C883   1.502       .  S
C883        H887   1.111       .  S
C883        H888   1.108       .  S
C883        H889   1.105       .  S
C886        H890   1.106       .  S
C886        H891   1.109       .  S
C886        H892   1.110   1_556  S
C893        C894   1.406       .  A
C893        C898   1.403       .  A
C893        H900   1.084       .  S
C894        C895   1.412       .  A
C895        C896   1.397       .  A
C895        C902   1.507       .  S
C896        C897   1.408       .  A
C896        H901   1.083       .  S
C897        C898   1.420       .  A
C898        C899   1.508       .  S
C899        H903   1.111       .  S
C899        H904   1.109       .  S
C899        H905   1.110       .  S
C902        H906   1.106       .  S
C902        H907   1.110       .  S
C902        H908   1.111       .  S
C909        C910   1.403       .  A
C909        C914   1.399       .  A
C909        H916   1.078       .  S
C910        C911   1.419       .  A
C911        C912   1.408       .  A
C911        C918   1.508       .  S
C912        C913   1.405       .  A
C912        H917   1.084       .  S
C913        C914   1.413       .  A
C914        C915   1.505       .  S
C915        H919   1.111       .  S
C915        H920   1.100       .  S
C915        H921   1.110       .  S
C918        H922   1.101       .  S
C918        H923   1.105       .  S
C918        H924   1.111       .  S
C925        C926   1.400       .  A
C925        C930   1.396       .  A
C925        H932   1.075       .  S
C926        C927   1.417       .  A
C927        C928   1.416       .  A
C927        C934   1.506       .  S
C928        C929   1.411       .  A
C928        H933   1.084       .  S
C929        C930   1.421       .  A
C930        C931   1.512       .  S
C931        H935   1.111       .  S
C931        H936   1.109       .  S
C931        H937   1.110       .  S
C934        H938   1.105       .  S
C934        H939   1.107       .  S
C934        H940   1.111       .  S
C941        C942   1.407       .  A
C941        C946   1.400       .  A
C941        H948   1.084       .  S
C942        C943   1.421       .  A
C943        C944   1.402       .  A
C943        C950   1.509       .  S
C944        C945   1.401       .  A
C944        H949   1.085       .  S
C945        C946   1.414       .  A
C946        C947   1.502       .  S
C947        H951   1.105       .  S
C947        H952   1.104       .  S
C947        H953   1.110       .  S
C950        H954   1.109       .  S
C950        H955   1.110       .  S
C950        H956   1.111       .  S
C957        C958   1.401       .  A
C957        C962   1.409       .  A
C957        H964   1.084       .  S
C958        C959   1.406       .  A
C959        C960   1.397       .  A
C959        C966   1.508       .  S
C960        C961   1.409       .  A
C960        H965   1.082       .  S
C961        C962   1.421       .  A
C962        C963   1.503       .  S
C963        H967   1.111       .  S
C963        H968   1.102       .  S
C963        H969   1.110       .  S
C966        H970   1.111       .  S
C966        H971   1.104       .  S
C966        H972   1.107       .  S
C973        C974   1.413       .  A
C973        C978   1.402       .  A
C973        H980   1.084       .  S
C974        C975   1.429       .  A
C975        C976   1.407       .  A
C975        C982   1.499       .  S
C976        C977   1.394       .  A
C976        H981   1.085       .  S
C977        C978   1.405       .  A
C978        C979   1.506       .  S
C979        H983   1.111       .  S
C979        H984   1.110       .  S
C979        H985   1.103       .  S
C982        H986   1.103       .  S
C982        H987   1.103       .  S
C982        H988   1.111       .  S
C989        C990   1.410       .  A
C989        C994   1.409       .  A
C989        H996   1.080       .  S
C990        C991   1.414       .  A
C991        C992   1.396       .  A
C991        C998   1.510       .  S
C992        C993   1.409       .  A
C992        H997   1.083       .  S
C993        C994   1.417       .  A
C994        C995   1.508       .  S
C995        H999   1.111       .  S
C995       H1000   1.110       .  S
C995       H1001   1.101       .  S
C998       H1002   1.107       .  S
C998       H1004   1.111       .  S
C1005      C1006   1.406       .  A
C1005      C1010   1.403       .  A
C1005      H1012   1.084       .  S
C1006      C1007   1.416       .  A
C1007      C1008   1.402       .  A
C1007      C1014   1.502       .  S
C1008      C1009   1.403       .  A
C1008      H1013   1.085       .  S
C1009      C1010   1.415       .  A
C1010      C1011   1.508       .  S
C1011      H1015   1.111       .  S
C1011      H1016   1.101       .  S
C1011      H1017   1.110       .  S
C1014      H1018   1.102       .  S
C1014      H1019   1.110       .  S
C1014      H1020   1.110       .  S
C1021      C1022   1.407       .  A
C1021      C1026   1.413       .  A
C1021      H1028   1.084       .  S
C1022      C1023   1.416       .  A
C1023      C1024   1.392       .  A
C1023      C1030   1.504       .  S
C1024      C1025   1.402       .  A
C1024      H1029   1.085       .  S
C1025      C1026   1.420       .  A
C1026      C1027   1.504       .  S
C1027      H1031   1.110       .  S
C1027      H1032   1.104       .  S
C1027      H1033   1.111       .  S
C1030      H1034   1.096       .  S
C1030      H1035   1.110       .  S
C1030      H1036   1.111       .  S
C1037      C1038   1.404       .  A
C1037      C1042   1.414       .  A
C1037      H1044   1.083       .  S
C1038      C1039   1.414       .  A
C1039      C1040   1.393       .  A
C1039      C1046   1.508       .  S
C1040      C1041   1.406       .  A
C1040      H1045   1.084       .  S
C1041      C1042   1.425       .  A
C1042      C1043   1.506       .  S
C1043      H1047   1.111       .  S
C1043      H1048   1.108       .  S
C1043      H1049   1.110       .  S
C1046      H1051   1.105   1_556  S
C1053      C1054   1.404       .  A
C1053      C1058   1.405       .  A
C1053      H1060   1.082       .  S
C1054      C1055   1.413       .  A
C1055      C1056   1.398       .  A
C1055      C1062   1.502       .  S
C1056      C1057   1.398       .  A
C1056      H1061   1.082       .  S
C1057      C1058   1.414       .  A
C1058      C1059   1.506       .  S
C1059      H1063   1.111       .  S
C1059      H1064   1.108       .  S
C1059      H1065   1.110       .  S
C1062      H1067   1.109       .  S
C1062      H1068   1.111       .  S
C1069      C1070   1.401       .  A
C1069      C1074   1.408       .  A
C1069      H1076   1.085       .  S
C1070      C1071   1.407       .  A
C1071      C1072   1.397       .  A
C1071      C1078   1.513       .  S
C1072      C1073   1.412       .  A
C1072      H1077   1.083   1_556  S
C1073      C1074   1.424       .  A
C1074      C1075   1.503       .  S
C1075      H1079   1.111       .  S
C1075      H1080   1.110       .  S
C1075      H1081   1.101       .  S
C1078      H1082   1.105       .  S
C1078      H1083   1.110       .  S
C1078      H1084   1.111       .  S
C1085      C1086   1.405       .  A
C1085      C1090   1.402       .  A
C1085      H1092   1.083       .  S
C1086      C1087   1.411       .  A
C1087      C1088   1.398       .  A
C1087      C1094   1.507       .  S
C1088      C1089   1.407       .  A
C1088      H1093   1.083       .  S
C1089      C1090   1.420       .  A
C1090      C1091   1.508       .  S
C1091      H1095   1.107       .  S
C1091      H1096   1.111       .  S
C1091      H1097   1.106       .  S
C1094      H1098   1.106       .  S
C1094      H1099   1.110       .  S
C1094      H1100   1.111       .  S
C1101      C1102   1.409       .  A
C1101      C1106   1.410       .  A
C1101      H1108   1.077       .  S
C1102      C1103   1.417       .  A
C1103      C1104   1.398       .  A
C1104      C1105   1.396       .  A
C1104      H1109   1.084       .  S
C1105      C1106   1.411       .  A
C1106      C1107   1.506       .  S
C1107      H1111   1.111       .  S
C1107      H1112   1.110       .  S
C1107      H1113   1.110       .  S
C1110      H1114   1.111       .  S
C1110      H1115   1.097       .  S
C1110      H1116   1.109       .  S
C1117      C1118   1.408       .  A
C1117      C1122   1.398       .  A
C1117      H1124   1.084       .  S
C1118      C1119   1.417       .  A
C1119      C1120   1.406       .  A
C1119      C1126   1.508       .  S
C1120      C1121   1.405       .  A
C1120      H1125   1.072       .  S
C1121      C1122   1.413       .  A
C1122      C1123   1.503       .  S
C1123      H1127   1.110       .  S
C1126      H1130   1.106       .  S
C1126      H1131   1.110       .  S
C1126      H1132   1.111       .  S
C1133      C1134   1.403       .  A
C1133      C1138   1.405       .  A
C1133      H1140   1.080       .  S
C1134      C1135   1.421       .  A
C1135      C1136   1.398       .  A
C1135      C1142   1.504       .  S
C1136      C1137   1.399       .  A
C1136      H1141   1.084       .  S
C1137      C1138   1.418       .  A
C1138      C1139   1.508       .  S
C1139      H1143   1.111       .  S
C1139      H1144   1.109       .  S
C1139      H1145   1.110       .  S
C1142      H1146   1.096       .  S
C1142      H1147   1.111       .  S
C1142      H1148   1.110       .  S
C1149      C1150   1.403       .  A
C1149      C1154   1.403       .  A
C1149      H1156   1.077       .  S
C1150      C1151   1.421       .  A
C1151      C1152   1.405       .  A
C1151      C1158   1.503       .  S
C1152      C1153   1.401       .  A
C1152      H1157   1.085       .  S
C1153      C1154   1.414       .  A
C1154      C1155   1.502       .  S
C1155      H1159   1.111       .  S
C1155      H1160   1.111       .  S
C1155      H1161   1.103       .  S
C1158      H1162   1.100       .  S
C1158      H1163   1.111       .  S
C1158      H1164   1.110       .  S
