geometry optimzed in LAMMPS
_audit_creation_date              2020-11-30 
_audit_creation_method            'lammps2cif' 
_symmetry_space_group_name_H-M    'P1' 
_symmetry_Int_Tables_number       1 
_symmetry_cell_setting            triclinic 
loop_ 
_symmetry_equiv_pos_as_xyz 
  x,y,z 
_cell_length_a                    30.28785666 
_cell_length_b                    30.621469978815632 
_cell_length_c                    52.99574980193621 
_cell_angle_alpha                 90.49142005190652 
_cell_angle_beta                  89.25832519771782 
_cell_angle_gamma                 90.10670065675522 
loop_ 
_atom_site_label 
_atom_site_type_symbol 
_atom_site_fract_x 
_atom_site_fract_y 
_atom_site_fract_z 
_atom_site_charge 
In1        In  0.59709960  0.56274994  0.61252744     1.36900
C2          C  0.56749788  0.54137371  0.56686441     0.77400
O3          O  0.65242053  0.51527175  0.62018496    -0.61000
O4          O  0.59125698  0.50537498  0.63881191    -0.51900
C5          C  0.65870395  0.62547549  0.61171415     0.70100
O6          O  0.66126344  0.59186491  0.59787328    -0.46800
C7          C  0.52862218  0.59700306  0.63793894     0.74800
O8          O  0.58067949  0.57929683  0.57241752    -0.58700
O9          O  0.56528515  0.58894732  0.64793132    -0.48700
O10         O  0.56993217  0.51442829  0.58463549    -0.55100
C11         C  0.63028806  0.49230045  0.63537582     0.85000
O12         O  0.62466401  0.62690834  0.62553756    -0.57000
O13         O  0.52649951  0.58641457  0.61492700    -0.60300
In14       In  0.94915878  0.92435563  0.61641930     1.36900
C15         C  0.96255728  0.94960793  0.56896134     0.77400
O16         O  0.89206870  0.96922324  0.62457339    -0.61000
O17         O  0.95458770  0.98869923  0.63788459    -0.51900
C18         C  0.89461462  0.85626983  0.61914254     0.70100
O19         O  0.92462484  0.85907991  0.60253385    -0.46800
C20         C  0.02038573  0.89100929  0.63877524     0.74800
O21         O  0.92942915  0.92748156  0.57570254    -0.58700
O22         O  0.98716906  0.90493080  0.65094796    -0.48700
O23         O  0.98813959  0.95972301  0.58667314    -0.55100
C24         C  0.91400563  0.99745836  0.63644080     0.85000
O25         O  0.89388545  0.88740565  0.63485504    -0.57000
O26         O  0.01718703  0.89442619  0.61521674    -0.60300
In27       In  0.40989047  0.42820263  0.35475165     1.36900
C28         C  0.44721320  0.45157901  0.39805221     0.77400
O29         O  0.45952960  0.37387508  0.34894726    -0.61000
O30         O  0.46451003  0.42947686  0.32563990    -0.51900
C31         C  0.33943878  0.37534981  0.35495198     0.70100
O32         O  0.34601611  0.40295804  0.37224734    -0.46800
C33         C  0.37438862  0.49729746  0.33243929     0.74800
O34         O  0.42994643  0.41453549  0.39463827    -0.58700
O35         O  0.39517975  0.46791984  0.32046427    -0.48700
O36         O  0.44592292  0.47620663  0.37915915    -0.55100
C37         C  0.47961054  0.39239140  0.33097797     0.85000
O38         O  0.36893035  0.37480775  0.33802220    -0.57000
O39         O  0.37154503  0.49111807  0.35589773    -0.60300
In40       In  0.04862962  0.07710045  0.34658107     1.36900
C41         C  0.03203125  0.04271494  0.39148700     0.77400
O42         O  0.98774243  0.11899567  0.34643562    -0.61000
O43         O  0.01042165  0.09302297  0.31157863    -0.51900
C44         C  0.10373874  0.14459151  0.34929678     0.70100
O45         O  0.07777896  0.13480150  0.36719363    -0.46800
C46         C  0.08289807  0.00595934  0.32465620     0.74800
O47         O  0.06851458  0.06030943  0.38585033    -0.58700
O48         O  0.04304634  0.00792834  0.33169090    -0.48700
O49         O  0.00409237  0.04271022  0.37403692    -0.55100
C50         C  0.98252786  0.11673849  0.32294663     0.85000
O51         O  0.10158880  0.11952719  0.33034146    -0.57000
O52         O  0.10466585  0.04039388  0.32857026    -0.60300
C53         C  0.23549999  0.74843986  0.23792839    -0.02600
C54         C  0.27788600  0.75355810  0.73013477    -0.02600
C55         C  0.73383151  0.26089422  0.22813197    -0.02600
In56       In  0.44542651  0.07783362  0.84944821     1.36900
C57         C  0.46478949  0.04575234  0.89442669     0.77400
O58         O  0.43057505  0.04172741  0.81365724    -0.61000
O59         O  0.40616232  0.01561715  0.84808663    -0.51900
C60         C  0.38706652  0.14309508  0.84864489     0.70100
O61         O  0.41521600  0.13890549  0.86572009    -0.46800
C62         C  0.52015661  0.11071480  0.83038438     0.74800
O63         O  0.42862518  0.06419172  0.88987957    -0.58700
O64         O  0.50661965  0.07290730  0.82494262    -0.48700
O65         O  0.49086911  0.04307993  0.87574303    -0.55100
C66         C  0.40923718  0.01159887  0.82442690     0.85000
O67         O  0.38873842  0.11376830  0.83184678    -0.57000
O68         O  0.49563623  0.13128274  0.84570020    -0.60300
In69       In  0.09161801  0.43774734  0.84929786     1.36900
C70         C  0.06059770  0.46409959  0.89441561     0.77400
O71         O  0.14194360  0.49243470  0.84797637    -0.61000
O72         O  0.10355746  0.48075694  0.81560616    -0.51900
C73         C  0.15714097  0.37981476  0.84812035     0.70100
O74         O  0.14788173  0.40287691  0.86726061    -0.46800
C75         C  0.01995165  0.40077837  0.82860436     0.74800
O76         O  0.07844001  0.42747621  0.89074772    -0.58700
O77         O  0.04642431  0.38008084  0.84219502    -0.48700
O78         O  0.05761614  0.48689935  0.87482595    -0.55100
C79         C  0.13358323  0.50321851  0.82566237     0.85000
O80         O  0.13312366  0.38683667  0.82931772    -0.57000
O81         O  0.02959013  0.44060751  0.82614162    -0.60300
In82       In  0.91824707  0.57983770  0.11180123     1.36900
C83         C  0.95172472  0.55796328  0.06672556     0.77400
O84         O  0.97039094  0.63130579  0.11635262    -0.61000
O85         O  0.97106484  0.57759498  0.14130149    -0.51900
C86         C  0.85314094  0.63829817  0.11058753     0.70100
O87         O  0.88840912  0.64451356  0.12238181    -0.46800
C88         C  0.87934798  0.51245331  0.13477061     0.74800
O89         O  0.92430342  0.58841953  0.07004235    -0.58700
O90         O  0.89033984  0.54685780  0.14638714    -0.48700
O91         O  0.96261647  0.53883568  0.08666662    -0.55100
C92         C  0.98840125  0.61342596  0.13489017     0.85000
O93         O  0.85075554  0.60169453  0.09966023    -0.57000
O94         O  0.88835182  0.51270650  0.11150990    -0.60300
In95       In  0.55578168  0.93077184  0.11766783     1.36900
C96         C  0.53828668  0.95443147  0.07067220     0.77400
O97         O  0.49434861  0.88929557  0.11983686    -0.61000
O98         O  0.51745570  0.91746022  0.15369492    -0.51900
C99         C  0.61759246  0.86906494  0.11349955     0.70100
O100        O  0.62666416  0.90884237  0.11685015    -0.46800
C101        C  0.58423255  0.00272923  0.14148048     0.74800
O102        O  0.57467568  0.93811595  0.07688941    -0.58700
O103        O  0.59504472  0.96452990  0.14756536    -0.48700
O104        O  0.51108205  0.95946688  0.08869156    -0.55100
C105        C  0.48924981  0.89312820  0.14334258     0.85000
O106        O  0.57691278  0.86097717  0.11220287    -0.57000
O107        O  0.55691060  0.00428997  0.12372938    -0.60300
C108        C  0.77251395  0.24836979  0.73365944    -0.02600
C109        C  0.81791005  0.67139440  0.10959267    -0.01500
C110        C  0.77575559  0.66028331  0.10114649    -0.09500
C111        C  0.74217086  0.69147395  0.10069647    -0.18300
C112        C  0.74999953  0.73511742  0.10849051     0.04100
C113        C  0.79338101  0.74641175  0.11619110     0.18300
C114        C  0.82654158  0.71455320  0.11696334    -0.19700
C115        C  0.80349661  0.78944226  0.12309724    -0.21000
C116        C  0.77128401  0.82163418  0.12277448    -0.19500
C117        C  0.72794040  0.81139083  0.11606910     0.19700
C118        C  0.71650579  0.76794242  0.10896612     0.01800
C119        C  0.67187897  0.75917031  0.10316863    -0.14300
C120        C  0.64006822  0.79207602  0.10454578    -0.12000
C121        C  0.65165000  0.83477184  0.11143205     0.01300
C122        C  0.69574033  0.84430262  0.11689858    -0.24200
H123        H  0.76853665  0.62716137  0.09512981     0.09300
H124        H  0.71058787  0.68046442  0.09399423     0.12900
H125        H  0.85936208  0.72350795  0.12314143     0.11600
H126        H  0.83660436  0.79828813  0.12877743     0.12800
H127        H  0.78018233  0.85466359  0.12822316     0.11800
H128        H  0.66031188  0.72708505  0.09797824     0.08900
H129        H  0.60613372  0.78397788  0.10026163     0.12200
H130        H  0.70488024  0.87726413  0.12239712     0.14100
C131        C  0.98143828  0.38003564  0.81616600    -0.01500
C132        C  0.95342485  0.40496351  0.80120675    -0.09500
C133        C  0.91790181  0.38570350  0.78868604    -0.18300
C134        C  0.90910838  0.34042673  0.79065526     0.04100
C135        C  0.93783209  0.31511451  0.80566458     0.18300
C136        C  0.97327215  0.33505454  0.81838316    -0.19700
C137        C  0.93138069  0.26993470  0.80757372    -0.21000
C138        C  0.89750523  0.24921014  0.79452548    -0.19500
C139        C  0.86870097  0.27318469  0.77953185     0.19700
C140        C  0.87352462  0.31921630  0.77783533     0.01800
C141        C  0.84223529  0.34205728  0.76356488    -0.14300
C142        C  0.80953727  0.32002875  0.75015603    -0.12000
C143        C  0.80692758  0.27398792  0.74977126     0.01300
C144        C  0.83540762  0.25131056  0.76597497    -0.24200
H145        H  0.95918883  0.43964972  0.79896419     0.09300
H146        H  0.89843753  0.40703901  0.77723604     0.12900
H147        H  0.99497469  0.31533726  0.82971523     0.11600
H148        H  0.95311486  0.25035772  0.81895230     0.12800
H149        H  0.89394592  0.21410784  0.79608919     0.11800
H150        H  0.84181494  0.37717854  0.76257210     0.08900
H151        H  0.78612128  0.33999422  0.74032563     0.12200
H152        H  0.83257414  0.21608717  0.76723571     0.14100
C153        C  0.04496929  0.47916187  0.91957506    -0.01500
C154        C  0.02126520  0.51814458  0.92207818    -0.09500
C155        C  0.00628524  0.53269758  0.94569862    -0.18300
C156        C  0.01474081  0.50862720  0.96779613     0.04100
C157        C  0.03960614  0.46946350  0.96521723     0.18300
C158        C  0.05421500  0.45505390  0.94126376    -0.19700
C159        C  0.04965574  0.44487135  0.98654199    -0.21000
C160        C  0.03520507  0.45812116  0.01042594    -0.19500
C161        C  0.01003792  0.49612385  0.01357340     0.19700
C162        C  0.99937007  0.52191592  0.99229529     0.01800
C163        C  0.97332390  0.55963338  0.99644729    -0.14300
C164        C  0.95839208  0.57108361  0.02058954    -0.12000
C165        C  0.96899186  0.54568816  0.04146344     0.01300
C166        C  0.99506774  0.50831642  0.03787083    -0.24200
H167        H  0.01402206  0.53749659  0.90562893     0.09300
H168        H  0.98828969  0.56299528  0.94596573     0.12900
H169        H  0.07299888  0.42504093  0.93952414     0.11600
H170        H  0.06877601  0.41509738  0.98473066     0.12800
H171        H  0.04347551  0.43829537  0.02653137     0.11800
H172        H  0.96345655  0.58082100  0.98143197     0.08900
H173        H  0.93823806  0.60007198  0.02289179     0.12200
H174        H  0.00321540  0.48833886  0.05394764     0.14100
C175        C  0.56089063  0.12979212  0.81953331    -0.01500
C176        C  0.57179905  0.17332875  0.82477792    -0.09500
C177        C  0.60893901  0.19263354  0.81371187    -0.18300
C178        C  0.63669787  0.16876125  0.79698974     0.04100
C179        C  0.62641678  0.12401076  0.79251833     0.18300
C180        C  0.58861681  0.10511694  0.80359496    -0.19700
C181        C  0.65370422  0.09851349  0.77683230    -0.21000
C182        C  0.69046080  0.11677270  0.76498093    -0.19500
C183        C  0.70008448  0.16127961  0.76792651     0.19700
C184        C  0.67364530  0.18785261  0.78411825     0.01800
C185        C  0.68477085  0.23257581  0.78617180    -0.14300
C186        C  0.71797395  0.25072696  0.77100701    -0.12000
C187        C  0.74147046  0.22530659  0.75310847     0.01300
C188        C  0.73491832  0.17963327  0.75382802    -0.24200
H189        H  0.55108151  0.19292139  0.83723923     0.09300
H190        H  0.61483731  0.22635196  0.81854393     0.12900
H191        H  0.58063742  0.07121868  0.79966646     0.11600
H192        H  0.64638084  0.06429005  0.77354301     0.12800
H193        H  0.71058570  0.09625727  0.75268404     0.11800
H194        H  0.66725677  0.25486292  0.79851183     0.08900
H195        H  0.72358569  0.28562850  0.77217052     0.12200
H196        H  0.75553728  0.15776935  0.74281914     0.14100
C197        C  0.47583185  0.02934716  0.91965676    -0.01500
C198        C  0.51599176  0.00816843  0.92368469    -0.09500
C199        C  0.52734845  0.99426188  0.94776937    -0.18300
C200        C  0.49872219  0.00137885  0.96872172     0.04100
C201        C  0.45765061  0.02226308  0.96434911     0.18300
C202        C  0.44664159  0.03588624  0.94002943    -0.19700
C203        C  0.42789303  0.02986329  0.98430104    -0.21000
C204        C  0.43811599  0.01747115  0.00867039    -0.19500
C205        C  0.47843968  0.99736494  0.01370937     0.19700
C206        C  0.50938619  0.98891808  0.99384342     0.01800
C207        C  0.54976824  0.96880286  0.00009671    -0.14300
C208        C  0.55897695  0.95783841  0.02499483    -0.12000
C209        C  0.52835395  0.96633618  0.04442536     0.01300
C210        C  0.48807254  0.98592214  0.03862225    -0.24200
H211        H  0.53898231  0.00260573  0.90816368     0.09300
H212        H  0.55883537  0.97831734  0.94935272     0.12900
H213        H  0.41541716  0.05219891  0.93703424     0.11600
H214        H  0.39651584  0.04568723  0.98105405     0.12800
H215        H  0.41440786  0.02394840  0.02372852     0.11800
H216        H  0.57502848  0.96131380  0.98625494     0.08900
H217        H  0.59030434  0.94255679  0.02903673     0.12200
H218        H  0.46417511  0.99253872  0.05357550     0.14100
C219        C  0.19271318  0.34687613  0.84803162    -0.01500
C220        C  0.22199134  0.34495133  0.86820178    -0.09500
C221        C  0.25489461  0.31315981  0.86881358    -0.18300
C222        C  0.25934803  0.28173520  0.84922310     0.04100
C223        C  0.22935104  0.28374406  0.82882898     0.18300
C224        C  0.19678280  0.31636336  0.82829516    -0.19700
C225        C  0.23166354  0.25286548  0.80923535    -0.21000
C226        C  0.26297437  0.21973558  0.80950033    -0.19500
C227        C  0.29308108  0.21691048  0.82922974     0.19700
C228        C  0.29203190  0.24810972  0.84927476     0.01800
C229        C  0.32370492  0.24416547  0.86850483    -0.14300
C230        C  0.35446825  0.21030319  0.86805407    -0.12000
C231        C  0.35484567  0.17926198  0.84851719     0.01300
C232        C  0.32420561  0.18290309  0.82906627    -0.24200
H233        H  0.21940989  0.36815034  0.88369819     0.09300
H234        H  0.27590834  0.31379503  0.88504919     0.12900
H235        H  0.17398216  0.31745320  0.81270489     0.11600
H236        H  0.20883740  0.25413030  0.79367583     0.12800
H237        H  0.26365190  0.19614029  0.79413843     0.11800
H238        H  0.32569026  0.26670362  0.88416155     0.08900
H239        H  0.37801305  0.20832809  0.88321515     0.12200
H240        H  0.32445785  0.15912180  0.81378529     0.14100
C241        C  0.75565016  0.29688239  0.21170250    -0.01500
C242        C  0.76013532  0.29465299  0.18525785    -0.09500
C243        C  0.78040680  0.32855929  0.17174831    -0.18300
C244        C  0.79762292  0.36586388  0.18421648     0.04100
C245        C  0.79461045  0.36724990  0.21093935     0.18300
C246        C  0.77446805  0.33312190  0.22418288    -0.19700
C247        C  0.81141104  0.40288244  0.22446674    -0.21000
C248        C  0.83077824  0.43777467  0.21196920    -0.19500
C249        C  0.83401132  0.43781926  0.18563576     0.19700
C250        C  0.81779246  0.40179178  0.17130113     0.01800
C251        C  0.82239515  0.40355416  0.14473527    -0.14300
C252        C  0.84228775  0.43944575  0.13302184    -0.12000
C253        C  0.85795715  0.47482092  0.14728982     0.01300
C254        C  0.85354123  0.47380472  0.17358680    -0.24200
H255        H  0.74872809  0.26656457  0.17472976     0.09300
H256        H  0.78226378  0.32451600  0.15155111     0.12900
H257        H  0.77245036  0.33502550  0.24461093     0.11600
H258        H  0.80926149  0.40393266  0.24489425     0.12800
H259        H  0.84323076  0.46500137  0.22299961     0.11800
H260        H  0.81100399  0.37773360  0.13249784     0.08900
H261        H  0.84530923  0.43952476  0.11263311     0.12200
H262        H  0.86572227  0.50098349  0.18477569     0.14100
C263        C  0.71286677  0.22270001  0.21271535    -0.01500
C264        C  0.67860957  0.23094832  0.19563677    -0.09500
C265        C  0.65650330  0.19686755  0.18316129    -0.18300
C266        C  0.66742770  0.15266243  0.18746537     0.04100
C267        C  0.70174660  0.14421425  0.20472936     0.18300
C268        C  0.72297319  0.17851402  0.21737137    -0.19700
C269        C  0.71442233  0.10130959  0.20983729    -0.21000
C270        C  0.69338364  0.06631674  0.19839280    -0.19500
C271        C  0.65888249  0.07324561  0.18165798     0.19700
C272        C  0.64530883  0.11640787  0.17577075     0.01800
C273        C  0.61015899  0.12102280  0.15860811    -0.14300
C274        C  0.58980874  0.08429803  0.14772475    -0.12000
C275        C  0.60360421  0.04196952  0.15369732     0.01300
C276        C  0.63802101  0.03691106  0.17077755    -0.24200
H277        H  0.66850350  0.26423803  0.19215078     0.09300
H278        H  0.63071116  0.20609502  0.17044068     0.12900
H279        H  0.74630213  0.16972970  0.23169138     0.11600
H280        H  0.74078485  0.09470089  0.22290858     0.12800
H281        H  0.70398273  0.03351045  0.20283732     0.11800
H282        H  0.59787965  0.15254634  0.15316994     0.08900
H283        H  0.56336064  0.08906334  0.13447114     0.12200
H284        H  0.64917703  0.00435361  0.17542338     0.14100
C285        C  0.15697425  0.53895526  0.81230470    -0.01500
C286        C  0.19308366  0.56034065  0.82321210    -0.09500
C287        C  0.21518969  0.59399231  0.81046255    -0.18300
C288        C  0.20149382  0.60761058  0.78634395     0.04100
C289        C  0.16460119  0.58589497  0.77553502     0.18300
C290        C  0.14316894  0.55183498  0.78839021    -0.19700
C291        C  0.14882175  0.59861407  0.75204322    -0.21000
C292        C  0.16798177  0.63338373  0.73932353    -0.19500
C293        C  0.20393792  0.65582127  0.74954995     0.19700
C294        C  0.22219941  0.64254719  0.77276823     0.01800
C295        C  0.26067517  0.66441452  0.78101095    -0.14300
C296        C  0.27863331  0.69941679  0.76737791    -0.12000
C297        C  0.25762077  0.71578368  0.74587628     0.01300
C298        C  0.22164057  0.69151420  0.73648446    -0.24200
H299        H  0.20435201  0.55100127  0.84171030     0.09300
H300        H  0.24232857  0.60929546  0.82011954     0.12900
H301        H  0.11516481  0.53562613  0.77982492     0.11600
H302        H  0.12086384  0.58208808  0.74365374     0.12800
H303        H  0.15434678  0.64298504  0.72139687     0.11800
H304        H  0.27811419  0.65457175  0.79762610     0.08900
H305        H  0.30904257  0.71402580  0.77388025     0.12200
H306        H  0.20733496  0.69989735  0.71854734     0.14100
C307        C  0.29574141  0.79324272  0.74530656    -0.01500
C308        C  0.31977319  0.82509362  0.73185830    -0.09500
C309        C  0.33809939  0.86124740  0.74379899    -0.18300
C310        C  0.33268938  0.86786757  0.76999407     0.04100
C311        C  0.30683401  0.83703115  0.78365651     0.18300
C312        C  0.28781466  0.80083573  0.77122804    -0.19700
C313        C  0.30037159  0.84237334  0.80970977    -0.21000
C314        C  0.31962004  0.87724883  0.82252746    -0.19500
C315        C  0.34529537  0.90805274  0.80957280     0.19700
C316        C  0.35189442  0.90406528  0.78305641     0.01800
C317        C  0.37746456  0.93650450  0.77078527    -0.14300
C318        C  0.39577134  0.97118604  0.78429513    -0.12000
C319        C  0.38950347  0.97473133  0.81041734     0.01300
C320        C  0.36427785  0.94300911  0.82297442    -0.24200
H321        H  0.32523337  0.82136837  0.71170925     0.09300
H322        H  0.35659404  0.88314287  0.73190196     0.12900
H323        H  0.26656802  0.77919652  0.78187884     0.11600
H324        H  0.28069907  0.81912478  0.82031363     0.12800
H325        H  0.31429759  0.88019202  0.84273436     0.11800
H326        H  0.38393966  0.93622247  0.75077083     0.08900
H327        H  0.41508970  0.99534231  0.77417966     0.12200
H328        H  0.35916158  0.94564237  0.84321788     0.14100
C329        C  0.19906465  0.72809772  0.22099572    -0.01500
C330        C  0.17775632  0.75375284  0.20290809    -0.09500
C331        C  0.14408050  0.73659091  0.18787661    -0.18300
C332        C  0.12960251  0.69289495  0.19062042     0.04100
C333        C  0.14972780  0.66746297  0.20950366     0.18300
C334        C  0.18294069  0.68523420  0.22460713    -0.19700
C335        C  0.13642476  0.62424041  0.21351995    -0.21000
C336        C  0.10316696  0.60563101  0.19924092    -0.19500
C337        C  0.08228317  0.62976250  0.18060688     0.19700
C338        C  0.09536759  0.67363948  0.17578907     0.01800
C339        C  0.07337926  0.69617191  0.15646049    -0.14300
C340        C  0.03930943  0.67626511  0.14297651    -0.12000
C341        C  0.02599620  0.63341737  0.14828277     0.01300
C342        C  0.04793473  0.61027519  0.16697076    -0.24200
H343        H  0.18756155  0.78746523  0.20029013     0.09300
H344        H  0.12986084  0.75843016  0.17439245     0.12900
H345        H  0.19516831  0.66512163  0.23961662     0.11600
H346        H  0.15178758  0.60465965  0.22789670     0.12800
H347        H  0.09349409  0.57215333  0.20293571     0.11800
H348        H  0.08162757  0.72923324  0.15139023     0.08900
H349        H  0.02286274  0.69478930  0.12854436     0.12200
H350        H  0.03799194  0.57700897  0.17109189     0.14100
C351        C  0.27600901  0.76631304  0.22284759    -0.01500
C352        C  0.31086925  0.78519868  0.23660141    -0.09500
C353        C  0.34696964  0.80450696  0.22462742    -0.18300
C354        C  0.35069887  0.80484146  0.19810139     0.04100
C355        C  0.31788300  0.78234814  0.18408177     0.18300
C356        C  0.28124470  0.76321989  0.19642032    -0.19700
C357        C  0.32171854  0.77936069  0.15776553    -0.21000
C358        C  0.35679938  0.79919849  0.14505142    -0.19500
C359        C  0.38849136  0.82327751  0.15827356     0.19700
C360        C  0.38590218  0.82650935  0.18501538     0.01800
C361        C  0.41805033  0.85221257  0.19742587    -0.14300
C362        C  0.45122005  0.87376891  0.18384474    -0.12000
C363        C  0.45371710  0.87039581  0.15752197     0.01300
C364        C  0.42241704  0.84474951  0.14486701    -0.24200
H365        H  0.30912405  0.78649145  0.25702769     0.09300
H366        H  0.37144273  0.81884565  0.23674526     0.12900
H367        H  0.25730178  0.74584485  0.18519282     0.11600
H368        H  0.29722037  0.76181849  0.14690050     0.12800
H369        H  0.35864427  0.79644056  0.12466372     0.11800
H370        H  0.41803397  0.85704989  0.21758576     0.08900
H371        H  0.47503974  0.89329541  0.19404980     0.12200
H372        H  0.42410430  0.84190967  0.12446714     0.14100
C373        C  0.94703031  0.14034205  0.30991109    -0.01500
C374        C  0.91447203  0.16263855  0.32386009    -0.09500
C375        C  0.88078251  0.18510273  0.31178188    -0.18300
C376        C  0.87869060  0.18619160  0.28514599     0.04100
C377        C  0.91211138  0.16375786  0.27108452     0.18300
C378        C  0.94576640  0.14123359  0.28350667    -0.19700
C379        C  0.91150359  0.16352994  0.24469120    -0.21000
C380        C  0.87781392  0.18426116  0.23190796    -0.19500
C381        C  0.84398977  0.20587945  0.24519795     0.19700
C382        C  0.84423638  0.20786733  0.27194742     0.01800
C383        C  0.80987084  0.23132601  0.28423637    -0.14300
C384        C  0.77514193  0.24935095  0.27065645    -0.12000
C385        C  0.77283669  0.24422558  0.24427931     0.01300
C386        C  0.80933448  0.22468372  0.23179699    -0.24200
H387        H  0.91481844  0.16248475  0.34429703     0.09300
H388        H  0.85665354  0.20090292  0.32383691     0.12900
H389        H  0.97101345  0.12426347  0.27256057     0.11600
H390        H  0.93694804  0.14668652  0.23384910     0.12800
H391        H  0.87789804  0.18286926  0.21146463     0.11800
H392        H  0.80881014  0.23630152  0.30437900     0.08900
H393        H  0.75049607  0.26760904  0.28115848     0.12200
H394        H  0.80944131  0.22222324  0.21136901     0.14100
C395        C  0.21220523  0.78634821  0.25279327    -0.01500
C396        C  0.17553388  0.77810397  0.26873371    -0.09500
C397        C  0.15258369  0.81222462  0.28099704    -0.18300
C398        C  0.16538191  0.85635103  0.27774237     0.04100
C399        C  0.20176067  0.86473559  0.26138516     0.18300
C400        C  0.22327674  0.83057747  0.24866782    -0.19700
C401        C  0.21671422  0.90743353  0.25747497    -0.21000
C402        C  0.19653460  0.94231775  0.26968352    -0.19500
C403        C  0.16020251  0.93552818  0.28564591     0.19700
C404        C  0.14352808  0.89261653  0.28976972     0.01800
C405        C  0.10562535  0.88829374  0.30549106    -0.14300
C406        C  0.08540658  0.92508034  0.31653764    -0.12000
C407        C  0.10286242  0.96694135  0.31267121     0.01300
C408        C  0.14031493  0.97177945  0.29732319    -0.24200
H409        H  0.16440849  0.74485935  0.27159316     0.09300
H410        H  0.12511793  0.80309849  0.29298800     0.12900
H411        H  0.24816587  0.83964178  0.23492291     0.11600
H412        H  0.24460759  0.91391317  0.24502673     0.12800
H413        H  0.20920712  0.97494220  0.26640547     0.11800
H414        H  0.09072700  0.85702131  0.30937057     0.08900
H415        H  0.05642295  0.92072182  0.32844487     0.12200
H416        H  0.15369452  0.00417708  0.29409045     0.14100
C417        C  0.51708415  0.37215467  0.31693136    -0.01500
C418        C  0.53224239  0.33039357  0.32304458    -0.09500
C419        C  0.56658000  0.31068924  0.30915067    -0.18300
C420        C  0.58692160  0.33227084  0.28852567     0.04100
C421        C  0.57164035  0.37487252  0.28265737     0.19900
C422        C  0.53717801  0.39421362  0.29677036    -0.19700
C423        C  0.59072177  0.39801256  0.26265536    -0.21000
C424        C  0.62507389  0.38002958  0.24845562    -0.19500
C425        C  0.64115230  0.33832828  0.25380257     0.19700
C426        C  0.62199168  0.31348362  0.27361275     0.01800
C427        C  0.63841123  0.27082069  0.27727421    -0.14300
C428        C  0.67349486  0.25442647  0.26255832    -0.12000
C429        C  0.69483560  0.28014143  0.24414934     0.01300
C430        C  0.67637626  0.32152997  0.23927256    -0.24200
H431        H  0.51730747  0.31269687  0.33857915     0.09300
H432        H  0.57658239  0.27864231  0.31505285     0.12900
H433        H  0.52574932  0.42656670  0.29188823     0.11600
H434        H  0.57916068  0.43042235  0.25803517     0.12800
H435        H  0.63934362  0.39903731  0.23322926     0.11800
H436        H  0.62461395  0.24919176  0.29124552     0.08900
H437        H  0.68472087  0.22143468  0.26589196     0.12200
H438        H  0.68853996  0.34104791  0.22376435     0.14100
C439        C  0.25614587  0.71276692  0.25477407    -0.01500
C440        C  0.25520125  0.71323025  0.28133049    -0.09500
C441        C  0.27459135  0.67943717  0.29504846    -0.18300
C442        C  0.29656804  0.64426306  0.28272496     0.04100
C443        C  0.29891291  0.64475293  0.25599070     0.18300
C444        C  0.27917178  0.67841058  0.24256167    -0.19700
C445        C  0.32076347  0.61148813  0.24259940    -0.21000
C446        C  0.34009747  0.57711961  0.25522101    -0.19500
C447        C  0.33793269  0.57508561  0.28154550     0.19700
C448        C  0.31635194  0.60864883  0.29577802     0.01800
C449        C  0.31525731  0.60468948  0.32235656    -0.14300
C450        C  0.33422738  0.56871966  0.33416837    -0.12000
C451        C  0.35500031  0.53567703  0.31996720     0.01300
C452        C  0.35700049  0.53932345  0.29367393    -0.24200
H453        H  0.24004529  0.73971450  0.29182139     0.09300
H454        H  0.27215764  0.68194869  0.31531548     0.12900
H455        H  0.28100249  0.67767963  0.22210465     0.11600
H456        H  0.32273372  0.61193462  0.22216510     0.12800
H457        H  0.35658239  0.55174410  0.24428215     0.11800
H458        H  0.29965708  0.62864988  0.33451288     0.08900
H459        H  0.33246436  0.56669820  0.35454894     0.12200
H460        H  0.37311221  0.51395451  0.28252445     0.14100
C461        C  0.30087892  0.34571108  0.35426916    -0.01500
C462        C  0.26877056  0.34565784  0.37355108    -0.09500
C463        C  0.23362948  0.31580598  0.37300782    -0.18300
C464        C  0.22981390  0.28492553  0.35307681     0.04100
C465        C  0.26168958  0.28659143  0.33316692     0.18300
C466        C  0.29654212  0.31659942  0.33398196    -0.19700
C467        C  0.25928444  0.25773847  0.31265602    -0.21000
C468        C  0.22657980  0.22611778  0.31174147    -0.19500
C469        C  0.19573403  0.22230580  0.33143507     0.19700
C470        C  0.19639646  0.25183264  0.35231278     0.01800
C471        C  0.16444832  0.24591090  0.37173631    -0.14300
C472        C  0.13417329  0.21133003  0.37072220    -0.12000
C473        C  0.13447683  0.18204094  0.35026604     0.01300
C474        C  0.16486511  0.18825879  0.33053969    -0.24200
H475        H  0.27114381  0.36834310  0.38927245     0.09300
H476        H  0.21032664  0.31733871  0.38853035     0.12900
H477        H  0.32091046  0.31678465  0.31880498     0.11600
H478        H  0.28330246  0.25922481  0.29734183     0.12800
H479        H  0.22600538  0.20384262  0.29573999     0.11800
H480        H  0.16259558  0.26691080  0.38813535     0.08900
H481        H  0.11065385  0.20731831  0.38610353     0.12200
H482        H  0.16520111  0.16583706  0.31458258     0.14100
C483        C  0.79482813  0.21492274  0.71521087    -0.01500
C484        C  0.76815537  0.18851321  0.69966355    -0.09500
C485        C  0.78609415  0.15472197  0.68494907    -0.18300
C486        C  0.83204784  0.14689579  0.68432248     0.04100
C487        C  0.85953817  0.17682797  0.69740667     0.18300
C488        C  0.84099466  0.21066492  0.71217986    -0.19700
C489        C  0.90550986  0.17221104  0.69620299    -0.21000
C490        C  0.92473660  0.13720422  0.68330080    -0.19500
C491        C  0.89850306  0.10578955  0.67132564     0.19700
C492        C  0.85175595  0.11047652  0.67134963     0.01800
C493        C  0.82678720  0.07778320  0.65902694    -0.14300
C494        C  0.84729597  0.04180030  0.64753719    -0.12000
C495        C  0.89327875  0.03690746  0.64790481     0.01300
C496        C  0.91873540  0.06930238  0.65967309    -0.24200
H497        H  0.73263202  0.19260756  0.70003204     0.09300
H498        H  0.76303617  0.13504975  0.67447495     0.12900
H499        H  0.86318001  0.23322713  0.72135947     0.11600
H500        H  0.92677506  0.19530416  0.70581746     0.12800
H501        H  0.96038257  0.13416545  0.68316470     0.11800
H502        H  0.79126004  0.07862734  0.65832355     0.08900
H503        H  0.82683357  0.01725498  0.63859596     0.12200
H504        H  0.95434890  0.06588917  0.66002017     0.14100
C505        C  0.05961825  0.87208775  0.65103812    -0.01500
C506        C  0.09617241  0.85815111  0.63661283    -0.09500
C507        C  0.13311627  0.83992268  0.64812365    -0.18300
C508        C  0.13456658  0.83478683  0.67460542     0.04100
C509        C  0.09705922  0.84851501  0.68906007     0.18300
C510        C  0.06046332  0.86725781  0.67727202    -0.19700
C511        C  0.09597154  0.84299777  0.71522233    -0.21000
C512        C  0.13103479  0.82350730  0.72738469    -0.19500
C513        C  0.16845959  0.80979193  0.71375990     0.19700
C514        C  0.17133650  0.81589072  0.68728804     0.01800
C515        C  0.21107854  0.80330880  0.67487629    -0.14300
C516        C  0.24563498  0.78381525  0.68807802    -0.12000
C517        C  0.24146621  0.77500942  0.71402589     0.01300
C518        C  0.20303288  0.78994763  0.72664738    -0.24200
H519        H  0.09621602  0.86126883  0.61626965     0.09300
H520        H  0.15974757  0.82955457  0.63579198     0.12900
H521        H  0.03223317  0.87764215  0.68859212     0.11600
H522        H  0.06750326  0.85331992  0.72634604     0.12800
H523        H  0.12887052  0.81916287  0.74763765     0.11800
H524        H  0.21671456  0.80885010  0.65503905     0.08900
H525        H  0.27586667  0.77669904  0.67783299     0.12200
H526        H  0.19993789  0.78550532  0.74687358     0.14100
C527        C  0.02245039  0.02459712  0.41666515    -0.01500
C528        C  0.98402757  0.00021447  0.42108686    -0.09500
C529        C  0.97336558  0.98558402  0.44531697    -0.18300
C530        C  0.00071670  0.99558526  0.46604234     0.04100
C531        C  0.04009261  0.01970921  0.46122807     0.18300
C532        C  0.05081253  0.03334524  0.43671057    -0.19700
C533        C  0.06807161  0.03116688  0.48099769    -0.21000
C534        C  0.05746996  0.01992440  0.50564241    -0.19500
C535        C  0.01893146  0.99643692  0.51108991     0.19700
C536        C  0.99014980  0.98339204  0.49140062     0.01800
C537        C  0.95201465  0.95906546  0.49807314    -0.14300
C538        C  0.94289233  0.94851883  0.52322795    -0.12000
C539        C  0.97130702  0.96186092  0.54247461     0.01300
C540        C  0.00918597  0.98583930  0.53623250    -0.24200
H541        H  0.96178214  0.99282967  0.40578021     0.09300
H542        H  0.94307786  0.96736233  0.44728101     0.12900
H543        H  0.08063494  0.05222184  0.43339989     0.11600
H544        H  0.09809080  0.04955388  0.47742424     0.12800
H545        H  0.07959135  0.02974713  0.52057855     0.11800
H546        H  0.92873803  0.94754536  0.48432402     0.08900
H547        H  0.91354736  0.92962102  0.52760552     0.12200
H548        H  0.03149021  0.99603899  0.55101102     0.14100
C549        C  0.64846614  0.45350652  0.64817210    -0.01500
C550        C  0.62276288  0.43069067  0.66585953    -0.09500
C551        C  0.63979328  0.39459131  0.67843836    -0.18300
C552        C  0.68351110  0.38013984  0.67379094     0.04100
C553        C  0.70955676  0.40357286  0.65592980     0.18300
C554        C  0.69177528  0.43947334  0.64315806    -0.19700
C555        C  0.75357579  0.39169919  0.65137631    -0.21000
C556        C  0.77290851  0.35831558  0.66500017    -0.19500
C557        C  0.74836123  0.33509752  0.68298931     0.19700
C558        C  0.70289801  0.34441345  0.68689219     0.01800
C559        C  0.67895410  0.31749074  0.70370222    -0.14300
C560        C  0.70007939  0.28534522  0.71769926    -0.12000
C561        C  0.74632827  0.27972908  0.71629437     0.01300
C562        C  0.76937197  0.30325743  0.69750007    -0.24200
H563        H  0.58932098  0.44104077  0.67020076     0.09300
H564        H  0.61834364  0.37935125  0.69217303     0.12900
H565        H  0.71203394  0.45703439  0.62959954     0.11600
H566        H  0.77360714  0.40923832  0.63771773     0.12800
H567        H  0.80747380  0.35090705  0.66162004     0.11800
H568        H  0.64368055  0.32022943  0.70624016     0.08900
H569        H  0.67940700  0.26526602  0.72960609     0.12200
H570        H  0.80454830  0.29794665  0.69496734     0.14100
C571        C  0.49195127  0.61836535  0.65197924    -0.01500
C572        C  0.50048006  0.63997152  0.67476039    -0.09500
C573        C  0.46702888  0.66210545  0.68785333    -0.18300
C574        C  0.42334194  0.66289931  0.67871862     0.04100
C575        C  0.41446618  0.63980917  0.65594871     0.18300
C576        C  0.44880855  0.61836535  0.64263699    -0.19700
C577        C  0.37136136  0.63817909  0.64670347    -0.21000
C578        C  0.33683857  0.65894487  0.65961411    -0.19500
C579        C  0.34470174  0.68288213  0.68174722     0.19700
C580        C  0.38817333  0.68555581  0.69141766     0.01800
C581        C  0.39456102  0.71061058  0.71349481    -0.14300
C582        C  0.35964341  0.73256553  0.72520245    -0.12000
C583        C  0.31657735  0.73158996  0.71533639     0.01300
C584        C  0.30934954  0.70423936  0.69425077    -0.24200
H585        H  0.53351954  0.64043015  0.68235431     0.09300
H586        H  0.47654062  0.67801357  0.70514941     0.12900
H587        H  0.44188079  0.60137018  0.62508961     0.11600
H588        H  0.36422216  0.62042970  0.62944622     0.12800
H589        H  0.30384201  0.65676096  0.65203546     0.11800
H590        H  0.42621075  0.71405001  0.72231492     0.08900
H591        H  0.36676496  0.74985456  0.74257075     0.12200
H592        H  0.27611299  0.69985229  0.68735650     0.14100
C593        C  0.46661569  0.46541682  0.42226440    -0.01500
C594        C  0.48185473  0.50825571  0.42550565    -0.09500
C595        C  0.49858247  0.52229285  0.44861971    -0.18300
C596        C  0.50073058  0.49365076  0.46936631     0.04100
C597        C  0.48618565  0.44985917  0.46574181     0.18300
C598        C  0.46913196  0.43629715  0.44242409    -0.19700
C599        C  0.48871072  0.41981542  0.48540746    -0.21000
C600        C  0.50555845  0.43222185  0.50865420    -0.19500
C601        C  0.51967650  0.47515318  0.51294249     0.19700
C602        C  0.51702323  0.50670262  0.49348676     0.01800
C603        C  0.53056037  0.54992866  0.49912940    -0.14300
C604        C  0.54686256  0.56099172  0.52288490    -0.12000
C605        C  0.55020223  0.52953040  0.54176723     0.01300
C606        C  0.53634933  0.48671706  0.53668160    -0.24200
H607        H  0.48044864  0.53129342  0.41013686     0.09300
H608        H  0.50970591  0.55568482  0.44958259     0.12900
H609        H  0.45767146  0.40297111  0.43999885     0.11600
H610        H  0.47779175  0.38638110  0.48275028     0.12800
H611        H  0.50734735  0.40808332  0.52344403     0.11800
H612        H  0.52874601  0.57600642  0.48567718     0.08900
H613        H  0.55691518  0.59441706  0.52647572     0.12200
H614        H  0.53843640  0.46224432  0.55128489     0.14100
C615        C  0.86171900  0.82063859  0.61961720    -0.01500
C616        C  0.82574968  0.82307125  0.63638821    -0.09500
C617        C  0.79216043  0.79196170  0.63566605    -0.18300
C618        C  0.79354957  0.75701942  0.61806914     0.04100
C619        C  0.83135199  0.75325344  0.60202173     0.18300
C620        C  0.86467491  0.78530030  0.60266595    -0.19700
C621        C  0.83554665  0.71758517  0.58544997    -0.21000
C622        C  0.80296871  0.68548262  0.58452399    -0.19500
C623        C  0.76467118  0.68907046  0.59948720     0.19700
C624        C  0.75901320  0.72545860  0.61605909     0.01800
C625        C  0.71869478  0.72908236  0.62962566    -0.14300
C626        C  0.68627291  0.69694156  0.62771374    -0.12000
C627        C  0.69271246  0.66014525  0.61226037     0.01300
C628        C  0.73182421  0.65660596  0.59793823    -0.24200
H629        H  0.82301496  0.84975903  0.64986753     0.09300
H630        H  0.76573633  0.79602034  0.64928073     0.12900
H631        H  0.89278091  0.78286633  0.58985143     0.11600
H632        H  0.86442654  0.71426488  0.57330061     0.12800
H633        H  0.80746663  0.65798184  0.57174503     0.11800
H634        H  0.71094653  0.75659569  0.64167817     0.08900
H635        H  0.65601915  0.70082166  0.63862718     0.12200
H636        H  0.73679196  0.62850484  0.58564858     0.14100
loop_ 
_geom_bond_atom_site_label_1 
_geom_bond_atom_site_label_2 
_geom_bond_distance 
_geom_bond_site_symmetry_2 
_ccdc_geom_bond_type 
In1           O3   2.263       .  S
In1           O4   2.257       .  S
In1          O12   2.240       .  S
In1           O6   2.267       .  S
In1           O8   2.252       .  S
In1           O9   2.241       .  S
In1          O10   2.245       .  S
In1          O13   2.261       .  S
C2            O8   1.261       .  A
C2           O10   1.260       .  A
C2          C605   1.478       .  S
O3           C11   1.259       .  A
O4           C11   1.259       .  A
C5           O12   1.258       .  A
C5            O6   1.261       .  A
C5          C627   1.478       .  S
C7            O9   1.262       .  A
C7           O13   1.262       .  A
C7          C571   1.479       .  S
C11         C549   1.483       .  S
In14         O16   2.246       .  S
In14         O17   2.273       .  S
In14         O25   2.238       .  S
In14         O19   2.252       .  S
In14         O21   2.249       .  S
In14         O22   2.259       .  S
In14         O23   2.242       .  S
In14         O26   2.257   1_655  S
C15          O21   1.259       .  A
C15          O23   1.261       .  A
C15         C539   1.477       .  S
O16          C24   1.259       .  A
O17          C24   1.262       .  A
C18          O25   1.261       .  A
C18          O19   1.260       .  A
C18         C615   1.476       .  S
C20          O22   1.261   1_455  A
C20          O26   1.259       .  A
C20         C505   1.483       .  S
C24         C495   1.484   1_565  S
In27         O29   2.261       .  S
In27         O30   2.248       .  S
In27         O38   2.235       .  S
In27         O32   2.272       .  S
In27         O34   2.250       .  S
In27         O35   2.245       .  S
In27         O36   2.241       .  S
In27         O39   2.251       .  S
C28          O34   1.261       .  A
C28          O36   1.260       .  A
C28         C593   1.477       .  S
O29          C37   1.261       .  A
O30          C37   1.261       .  A
C31          O38   1.258       .  A
C31          O32   1.259       .  A
C31         C461   1.478       .  S
C33          O35   1.261       .  A
C33          O39   1.261       .  A
C33         C451   1.479       .  S
C37         C417   1.483       .  S
In40         O42   2.249   1_455  S
In40         O43   2.256       .  S
In40         O51   2.231       .  S
In40         O45   2.254       .  S
In40         O47   2.238       .  S
In40         O48   2.261       .  S
In40         O49   2.240       .  S
In40         O52   2.236       .  S
C41          O47   1.262       .  A
C41          O49   1.262       .  A
C41         C527   1.475       .  S
O42          C50   1.258       .  A
O43          C50   1.259   1_455  A
C44          O51   1.261       .  A
C44          O45   1.262       .  A
C44         C473   1.477       .  S
C46          O48   1.260       .  A
C46          O52   1.260       .  A
C46         C407   1.475   1_545  S
C50         C373   1.479       .  S
C53         C329   1.557       .  S
C53         C351   1.557       .  S
C53         C395   1.562       .  S
C53         C439   1.554       .  S
C54         C297   1.553       .  S
C54         C307   1.552       .  S
C54         C517   1.554       .  S
C54         C583   1.553       .  S
C55         C241   1.552       .  S
C55         C263   1.560       .  S
C55         C385   1.557       .  S
C55         C429   1.559       .  S
In56         O58   2.238       .  S
In56         O59   2.245       .  S
In56         O67   2.257       .  S
In56         O61   2.244       .  S
In56         O63   2.239       .  S
In56         O64   2.254       .  S
In56         O65   2.247       .  S
In56         O68   2.240       .  S
C57          O63   1.260       .  A
C57          O65   1.261       .  A
C57         C197   1.475       .  S
O58          C66   1.262       .  A
O59          C66   1.261       .  A
C60          O67   1.260       .  A
C60          O61   1.259       .  A
C60         C231   1.478       .  S
C62          O64   1.260       .  A
C62          O68   1.259       .  A
C62         C175   1.476       .  S
C66         C319   1.476   1_545  S
In69         O71   2.263       .  S
In69         O72   2.253       .  S
In69         O80   2.253       .  S
In69         O74   2.240       .  S
In69         O76   2.252       .  S
In69         O77   2.264       .  S
In69         O78   2.256       .  S
In69         O81   2.259       .  S
C70          O76   1.258       .  A
C70          O78   1.260       .  A
C70         C153   1.479       .  S
O71          C79   1.260       .  A
O72          C79   1.260       .  A
C73          O80   1.261       .  A
C73          O74   1.260       .  A
C73         C219   1.477       .  S
C75          O77   1.260       .  A
C75          O81   1.261       .  A
C75         C131   1.486   1_455  S
C79         C285   1.483       .  S
In82         O84   2.243       .  S
In82         O85   2.253       .  S
In82         O93   2.255       .  S
In82         O87   2.242       .  S
In82         O89   2.236       .  S
In82         O90   2.254       .  S
In82         O91   2.256       .  S
In82         O94   2.245       .  S
C83          O89   1.260       .  A
C83          O91   1.261       .  A
C83         C165   1.477       .  S
O84          C92   1.260       .  A
O85          C92   1.263       .  A
C86          O93   1.260       .  A
C86          O87   1.258       .  A
C86         C109   1.475       .  S
C88          O90   1.262       .  A
C88          O94   1.259       .  A
C88         C253   1.479       .  S
C92         C341   1.478   1_655  S
In95         O97   2.253       .  S
In95         O98   2.261       .  S
In95        O106   2.247       .  S
In95        O100   2.250       .  S
In95        O102   2.241       .  S
In95        O103   2.238       .  S
In95        O104   2.246       .  S
In95        O107   2.272   1_565  S
C96         O102   1.260       .  A
C96         O104   1.262       .  A
C96         C209   1.476       .  S
O97         C105   1.258       .  A
O98         C105   1.260       .  A
C99         O106   1.259       .  A
C99         O100   1.260       .  A
C99         C121   1.476       .  S
C101        O103   1.261   1_545  A
C101        O107   1.262       .  A
C101        C275   1.484       .  S
C105        C363   1.481       .  S
C108        C143   1.562       .  S
C108        C187   1.559       .  S
C108        C483   1.559       .  S
C108        C561   1.560       .  S
C109        C110   1.399       .  A
C109        C114   1.400       .  A
C110        C111   1.397       .  A
C110        H123   1.083       .  S
C111        C112   1.416       .  A
C111        H124   1.077       .  S
C112        C118   1.429       .  A
C112        C113   1.422       .  A
C113        C115   1.399       .  A
C113        C114   1.403       .  A
C114        H125   1.085       .  S
C115        C116   1.389       .  A
C115        H126   1.084       .  S
C116        C117   1.399       .  A
C116        H127   1.084       .  S
C117        C118   1.423       .  A
C117        C122   1.404       .  A
C118        C119   1.415       .  A
C119        C120   1.396       .  A
C119        H128   1.077       .  S
C120        C121   1.400       .  A
C120        H129   1.083       .  S
C121        C122   1.400       .  A
C122        H130   1.085       .  S
C131        C132   1.400       .  A
C131        C136   1.405       .  A
C132        C133   1.398       .  A
C132        H145   1.083       .  S
C133        C134   1.416       .  A
C133        H146   1.077       .  S
C134        C140   1.433       .  A
C134        C135   1.422       .  A
C135        C137   1.401       .  A
C135        C136   1.410       .  A
C136        H147   1.084       .  S
C137        C138   1.394       .  A
C137        H148   1.084       .  S
C138        C139   1.401       .  A
C138        H149   1.084       .  S
C139        C140   1.420       .  A
C139        C144   1.411       .  A
C140        C141   1.410       .  A
C141        C142   1.396       .  A
C141        H150   1.077       .  S
C142        C143   1.412       .  A
C142        H151   1.079       .  S
C143        C144   1.413       .  A
C144        H152   1.084       .  S
C153        C154   1.399       .  A
C153        C158   1.403       .  A
C154        C155   1.396       .  A
C154        H167   1.083       .  S
C155        C156   1.415       .  A
C155        H168   1.077   1_455  S
C156        C162   1.430   1_455  A
C156        C157   1.422       .  A
C157        C159   1.400       .  A
C157        C158   1.407       .  A
C158        H169   1.084       .  S
C159        C160   1.391   1_556  A
C159        H170   1.084       .  S
C160        C161   1.400       .  A
C160        H171   1.084       .  S
C161        C162   1.423   1_454  A
C161        C166   1.407   1_455  A
C162        C163   1.414       .  A
C163        C164   1.394   1_556  A
C163        H172   1.077       .  S
C164        C165   1.399       .  A
C164        H173   1.083       .  S
C165        C166   1.402       .  A
C166        H174   1.084   1_655  S
C175        C176   1.399       .  A
C175        C180   1.401       .  A
C176        C177   1.395       .  A
C176        H189   1.083       .  S
C177        C178   1.414       .  A
C177        H190   1.077       .  S
C178        C184   1.430       .  A
C178        C179   1.423       .  A
C179        C181   1.399       .  A
C179        C180   1.406       .  A
C180        H191   1.084       .  S
C181        C182   1.390       .  A
C181        H192   1.084       .  S
C182        C183   1.401       .  A
C182        H193   1.084       .  S
C183        C184   1.419       .  A
C183        C188   1.404       .  A
C184        C185   1.413       .  A
C185        C186   1.397       .  A
C185        H194   1.077       .  S
C186        C187   1.409       .  A
C186        H195   1.083       .  S
C187        C188   1.413       .  A
C188        H196   1.079       .  S
C197        C198   1.399       .  A
C197        C202   1.400       .  A
C198        C199   1.396   1_545  A
C198        H211   1.083       .  S
C199        C200   1.416   1_565  A
C199        H212   1.077       .  S
C200        C206   1.429   1_545  A
C200        C201   1.422       .  A
C201        C203   1.399       .  A
C201        C202   1.403       .  A
C202        H213   1.084       .  S
C203        C204   1.388   1_556  A
C203        H214   1.084       .  S
C204        C205   1.399   1_545  A
C204        H215   1.084       .  S
C205        C206   1.423   1_554  A
C205        C210   1.403       .  A
C206        C207   1.415   1_556  A
C207        C208   1.396       .  A
C207        H216   1.077   1_554  S
C208        C209   1.400       .  A
C208        H217   1.083       .  S
C209        C210   1.399       .  A
C210        H218   1.084       .  S
C219        C220   1.399       .  A
C219        C224   1.401       .  A
C220        C221   1.395       .  A
C220        H233   1.083       .  S
C221        C222   1.415       .  A
C221        H234   1.077       .  S
C222        C228   1.430       .  A
C222        C223   1.423       .  A
C223        C225   1.400       .  A
C223        C224   1.406       .  A
C224        H235   1.084       .  S
C225        C226   1.390       .  A
C225        H236   1.084       .  S
C226        C227   1.400       .  A
C226        H237   1.084       .  S
C227        C228   1.423       .  A
C227        C232   1.406       .  A
C228        C229   1.415       .  A
C229        C230   1.395       .  A
C229        H238   1.077       .  S
C230        C231   1.399       .  A
C230        H239   1.083       .  S
C231        C232   1.401       .  A
C232        H240   1.084       .  S
C241        C242   1.407       .  A
C241        C246   1.410       .  A
C242        C243   1.402       .  A
C242        H255   1.080       .  S
C243        C244   1.417       .  A
C243        H256   1.077       .  S
C244        C250   1.432       .  A
C244        C245   1.418       .  A
C245        C247   1.399       .  A
C245        C246   1.399       .  A
C246        H257   1.085       .  S
C247        C248   1.387       .  A
C247        H258   1.084       .  S
C248        C249   1.398       .  A
C248        H259   1.084       .  S
C249        C250   1.424       .  A
C249        C254   1.404       .  A
C250        C251   1.414       .  A
C251        C252   1.399       .  A
C251        H260   1.077       .  S
C252        C253   1.401       .  A
C252        H261   1.083       .  S
C253        C254   1.399       .  A
C254        H262   1.085       .  S
C263        C264   1.410       .  A
C263        C268   1.412       .  A
C264        C265   1.404       .  A
C264        H277   1.083       .  S
C265        C266   1.415       .  A
C265        H278   1.078       .  S
C266        C272   1.436       .  A
C266        C267   1.419       .  A
C267        C269   1.399       .  A
C267        C268   1.401       .  A
C268        H279   1.080       .  S
C269        C270   1.385       .  A
C269        H280   1.084       .  S
C270        C271   1.397       .  A
C270        H281   1.084       .  S
C271        C272   1.423       .  A
C271        C276   1.402       .  A
C272        C273   1.417       .  A
C273        C274   1.405       .  A
C273        H282   1.078       .  S
C274        C275   1.403       .  A
C274        H283   1.083       .  S
C275        C276   1.399       .  A
C276        H284   1.085       .  S
C285        C286   1.402       .  A
C285        C290   1.400       .  A
C286        C287   1.402       .  A
C286        H299   1.083       .  S
C287        C288   1.415       .  A
C287        H300   1.078       .  S
C288        C294   1.433       .  A
C288        C289   1.423       .  A
C289        C291   1.398       .  A
C289        C290   1.404       .  A
C290        H301   1.085       .  S
C291        C292   1.387       .  A
C291        H302   1.084       .  S
C292        C293   1.399       .  A
C292        H303   1.084       .  S
C293        C294   1.419       .  A
C293        C298   1.401       .  A
C294        C295   1.415       .  A
C295        C296   1.403       .  A
C295        H304   1.078       .  S
C296        C297   1.409       .  A
C296        H305   1.082       .  S
C297        C298   1.411       .  A
C298        H306   1.083       .  S
C307        C308   1.409       .  A
C307        C312   1.409       .  A
C308        C309   1.389       .  A
C308        H321   1.084       .  S
C309        C310   1.409       .  A
C309        H322   1.076       .  S
C310        C316   1.429       .  A
C310        C311   1.422       .  A
C311        C313   1.400       .  A
C311        C312   1.410       .  A
C312        H323   1.080       .  S
C313        C314   1.392       .  A
C313        H324   1.084       .  S
C314        C315   1.400       .  A
C314        H325   1.084       .  S
C315        C316   1.421       .  A
C315        C320   1.406       .  A
C316        C317   1.416       .  A
C317        C318   1.394       .  A
C317        H326   1.076       .  S
C318        C319   1.398       .  A
C318        H327   1.083       .  S
C319        C320   1.402       .  A
C320        H328   1.084       .  S
C329        C330   1.408       .  A
C329        C334   1.413       .  A
C330        C331   1.401       .  A
C330        H343   1.083       .  S
C331        C332   1.415       .  A
C331        H344   1.077       .  S
C332        C338   1.432       .  A
C332        C333   1.418       .  A
C333        C335   1.400       .  A
C333        C334   1.400       .  A
C334        H345   1.080       .  S
C335        C336   1.386       .  A
C335        H346   1.084       .  S
C336        C337   1.397       .  A
C336        H347   1.084       .  S
C337        C338   1.424       .  A
C337        C342   1.404       .  A
C338        C339   1.414       .  A
C339        C340   1.399       .  A
C339        H348   1.078       .  S
C340        C341   1.402       .  A
C340        H349   1.083       .  S
C341        C342   1.398       .  A
C342        H350   1.085       .  S
C351        C352   1.411       .  A
C351        C356   1.410       .  A
C352        C353   1.391       .  A
C352        H365   1.083       .  S
C353        C354   1.409       .  A
C353        H366   1.077       .  S
C354        C360   1.430       .  A
C354        C355   1.422       .  A
C355        C357   1.400       .  A
C355        C356   1.410       .  A
C356        H367   1.080       .  S
C357        C358   1.392       .  A
C357        H368   1.084       .  S
C358        C359   1.401       .  A
C358        H369   1.084       .  S
C359        C360   1.421       .  A
C359        C364   1.407       .  A
C360        C361   1.416       .  A
C361        C362   1.396       .  A
C361        H370   1.077       .  S
C362        C363   1.399       .  A
C362        H371   1.083       .  S
C363        C364   1.404       .  A
C364        H372   1.084       .  S
C373        C374   1.400       .  A
C373        C378   1.401       .  A
C374        C375   1.397       .  A
C374        H387   1.083       .  S
C375        C376   1.415       .  A
C375        H388   1.077       .  S
C376        C382   1.431       .  A
C376        C377   1.423       .  A
C377        C379   1.399       .  A
C377        C378   1.406       .  A
C378        H389   1.084       .  S
C379        C380   1.390       .  A
C379        H390   1.084       .  S
C380        C381   1.400       .  A
C380        H391   1.084       .  S
C381        C382   1.419       .  A
C381        C386   1.402       .  A
C382        C383   1.414       .  A
C383        C384   1.399       .  A
C383        H392   1.077       .  S
C384        C385   1.408       .  A
C384        H393   1.079       .  S
C385        C386   1.412       .  A
C386        H394   1.085       .  S
C395        C396   1.410       .  A
C395        C400   1.413       .  A
C396        C397   1.406       .  A
C396        H409   1.083       .  S
C397        C398   1.416       .  A
C397        H410   1.078       .  S
C398        C404   1.434       .  A
C398        C399   1.418       .  A
C399        C401   1.399       .  A
C399        C400   1.397       .  A
C400        H411   1.079       .  S
C401        C402   1.383       .  A
C401        H412   1.084       .  S
C402        C403   1.396       .  A
C402        H413   1.084       .  S
C403        C404   1.424       .  A
C403        C408   1.400       .  A
C404        C405   1.416       .  A
C405        C406   1.403       .  A
C405        H414   1.078       .  S
C406        C407   1.401       .  A
C406        H415   1.083       .  S
C407        C408   1.396       .  A
C408        H416   1.085   1_565  S
C417        C418   1.401       .  A
C417        C422   1.401       .  A
C418        C419   1.401       .  A
C418        H431   1.083       .  S
C419        C420   1.416       .  A
C419        H432   1.078       .  S
C420        C426   1.434       .  A
C420        C421   1.423       .  A
C421        C423   1.398       .  A
C421        C422   1.405       .  A
C422        H433   1.085       .  S
C423        C424   1.388       .  A
C423        H434   1.084       .  S
C424        C425   1.400       .  A
C424        H435   1.084       .  S
C425        C426   1.419       .  A
C425        C430   1.403       .  A
C426        C427   1.415       .  A
C427        C428   1.401       .  A
C427        H436   1.077       .  S
C428        C429   1.409       .  A
C428        H437   1.083       .  S
C429        C430   1.413       .  A
C430        H438   1.081       .  S
C439        C440   1.407       .  A
C439        C444   1.411       .  A
C440        C441   1.404       .  A
C440        H453   1.079       .  S
C441        C442   1.417       .  A
C441        H454   1.078       .  S
C442        C448   1.433       .  A
C442        C443   1.418       .  A
C443        C445   1.399       .  A
C443        C444   1.397       .  A
C444        H455   1.085       .  S
C445        C446   1.387       .  A
C445        H456   1.084       .  S
C446        C447   1.398       .  A
C446        H457   1.084       .  S
C447        C448   1.424       .  A
C447        C452   1.404       .  A
C448        C449   1.415       .  A
C449        C450   1.400       .  A
C449        H458   1.078       .  S
C450        C451   1.401       .  A
C450        H459   1.083       .  S
C451        C452   1.399       .  A
C452        H460   1.085       .  S
C461        C462   1.402       .  A
C461        C466   1.398       .  A
C462        C463   1.402       .  A
C462        H475   1.083       .  S
C463        C464   1.417       .  A
C463        H476   1.078       .  S
C464        C470   1.432       .  A
C464        C465   1.422       .  A
C465        C467   1.397       .  A
C465        C466   1.399       .  A
C466        H477   1.085       .  S
C467        C468   1.385       .  A
C467        H478   1.084       .  S
C468        C469   1.397       .  A
C468        H479   1.084       .  S
C469        C470   1.423       .  A
C469        C474   1.400       .  A
C470        C471   1.416       .  A
C471        C472   1.401       .  A
C471        H480   1.078       .  S
C472        C473   1.401       .  A
C472        H481   1.083       .  S
C473        C474   1.398       .  A
C474        H482   1.085       .  S
C483        C484   1.410       .  A
C483        C488   1.412       .  A
C484        C485   1.397       .  A
C484        H497   1.083       .  S
C485        C486   1.413       .  A
C485        H498   1.078       .  S
C486        C492   1.432       .  A
C486        C487   1.420       .  A
C487        C489   1.400       .  A
C487        C488   1.407       .  A
C488        H499   1.080       .  S
C489        C490   1.391       .  A
C489        H500   1.084       .  S
C490        C491   1.400       .  A
C490        H501   1.084       .  S
C491        C492   1.423       .  A
C491        C496   1.409       .  A
C492        C493   1.414       .  A
C493        C494   1.397       .  A
C493        H502   1.078       .  S
C494        C495   1.401       .  A
C494        H503   1.083       .  S
C495        C496   1.402       .  A
C496        H504   1.084       .  S
C505        C506   1.402       .  A
C505        C510   1.400       .  A
C506        C507   1.401       .  A
C506        H519   1.083       .  S
C507        C508   1.415       .  A
C507        H520   1.078       .  S
C508        C514   1.434       .  A
C508        C509   1.424       .  A
C509        C511   1.398       .  A
C509        C510   1.405       .  A
C510        H521   1.085       .  S
C511        C512   1.388       .  A
C511        H522   1.084       .  S
C512        C513   1.399       .  A
C512        H523   1.084       .  S
C513        C514   1.418       .  A
C513        C518   1.400       .  A
C514        C515   1.417       .  A
C515        C516   1.403       .  A
C515        H524   1.078       .  S
C516        C517   1.408       .  A
C516        H525   1.080       .  S
C517        C518   1.410       .  A
C518        H526   1.084       .  S
C527        C528   1.400   1_455  A
C527        C532   1.399       .  A
C528        C529   1.397   1_545  A
C528        H541   1.083   1_545  S
C529        C530   1.415   1_655  A
C529        H542   1.077       .  S
C530        C536   1.430   1_455  A
C530        C531   1.423   1_565  A
C531        C533   1.398       .  A
C531        C532   1.402       .  A
C532        H543   1.085       .  S
C533        C534   1.387       .  A
C533        H544   1.084       .  S
C534        C535   1.398   1_545  A
C534        H545   1.084       .  S
C535        C536   1.422   1_455  A
C535        C540   1.402       .  A
C536        C537   1.416       .  A
C537        C538   1.398       .  A
C537        H546   1.077       .  S
C538        C539   1.401       .  A
C538        H547   1.083       .  S
C539        C540   1.399   1_655  A
C540        H548   1.084       .  S
C549        C550   1.401       .  A
C549        C554   1.403       .  A
C550        C551   1.399       .  A
C550        H563   1.083       .  S
C551        C552   1.415       .  A
C551        H564   1.078       .  S
C552        C558   1.432       .  A
C552        C553   1.422       .  A
C553        C555   1.400       .  A
C553        C554   1.408       .  A
C554        H565   1.084       .  S
C555        C556   1.391       .  A
C555        H566   1.084       .  S
C556        C557   1.399       .  A
C556        H567   1.084       .  S
C557        C558   1.419       .  A
C557        C562   1.405       .  A
C558        C559   1.412       .  A
C559        C560   1.398       .  A
C559        H568   1.078       .  S
C560        C561   1.413       .  A
C560        H569   1.079       .  S
C561        C562   1.411       .  A
C562        H570   1.085       .  S
C571        C572   1.398       .  A
C571        C576   1.403       .  A
C572        C573   1.394       .  A
C572        H585   1.083       .  S
C573        C574   1.415       .  A
C573        H586   1.077       .  S
C574        C580   1.430       .  A
C574        C575   1.422       .  A
C575        C577   1.401       .  A
C575        C576   1.409       .  A
C576        H587   1.084       .  S
C577        C578   1.394       .  A
C577        H588   1.084       .  S
C578        C579   1.401       .  A
C578        H589   1.084       .  S
C579        C580   1.421       .  A
C579        C584   1.411       .  A
C580        C581   1.409       .  A
C581        C582   1.391       .  A
C581        H590   1.077       .  S
C582        C583   1.412       .  A
C582        H591   1.082       .  S
C583        C584   1.410       .  A
C584        H592   1.083       .  S
C593        C594   1.400       .  A
C593        C598   1.400       .  A
C594        C595   1.396       .  A
C594        H607   1.083       .  S
C595        C596   1.415       .  A
C595        H608   1.077       .  S
C596        C602   1.430       .  A
C596        C597   1.423       .  A
C597        C599   1.399       .  A
C597        C598   1.405       .  A
C598        H609   1.084       .  S
C599        C600   1.389       .  A
C599        H610   1.084       .  S
C600        C601   1.399       .  A
C600        H611   1.084       .  S
C601        C602   1.422       .  A
C601        C606   1.404       .  A
C602        C603   1.416       .  A
C603        C604   1.397       .  A
C603        H612   1.077       .  S
C604        C605   1.400       .  A
C604        H613   1.083       .  S
C605        C606   1.401       .  A
C606        H614   1.084       .  S
C615        C616   1.399       .  A
C615        C620   1.403       .  A
C616        C617   1.393       .  A
C616        H629   1.083       .  S
C617        C618   1.414       .  A
C617        H630   1.077       .  S
C618        C624   1.427       .  A
C618        C619   1.422       .  A
C619        C621   1.401       .  A
C619        C620   1.407       .  A
C620        H631   1.084       .  S
C621        C622   1.393       .  A
C621        H632   1.084       .  S
C622        C623   1.401       .  A
C622        H633   1.084       .  S
C623        C624   1.422       .  A
C623        C628   1.408       .  A
C624        C625   1.413       .  A
C625        C626   1.393       .  A
C625        H634   1.077       .  S
C626        C627   1.400       .  A
C626        H635   1.083       .  S
C627        C628   1.402       .  A
C628        H636   1.084       .  S
