geometry optimzed in LAMMPS
_audit_creation_date              2020-11-30 
_audit_creation_method            'lammps2cif' 
_symmetry_space_group_name_H-M    'P1' 
_symmetry_Int_Tables_number       1 
_symmetry_cell_setting            triclinic 
loop_ 
_symmetry_equiv_pos_as_xyz 
  x,y,z 
_cell_length_a                    32.41344633 
_cell_length_b                    32.6784156542192 
_cell_length_c                    33.08457618165929 
_cell_angle_alpha                 90.65709787594886 
_cell_angle_beta                  90.04268937874627 
_cell_angle_gamma                 90.32509831221861 
loop_ 
_atom_site_label 
_atom_site_type_symbol 
_atom_site_fract_x 
_atom_site_fract_y 
_atom_site_fract_z 
_atom_site_charge 
N1          N  0.23045896  0.86585554  0.02324989    -0.03300
C2          C  0.21226226  0.84250725  0.05236236    -0.00700
C3          C  0.19335485  0.80847751  0.03521299    -0.23600
C4          C  0.20021359  0.81008200  0.99468688    -0.23800
C5          C  0.22301419  0.84507763  0.98812377    -0.00800
H6          H  0.17825336  0.78372086  0.05099316     0.13000
H7          H  0.19114212  0.78724749  0.97238765     0.13000
N8          N  0.71479726  0.04175137  0.02875965    -0.03300
C9          C  0.72674065  0.05960149  0.06433465    -0.00700
C10         C  0.75233396  0.09266853  0.05697686    -0.23600
C11         C  0.75489530  0.09676707  0.01599883    -0.23800
C12         C  0.73170856  0.06529300  0.99944257    -0.00800
H13         H  0.76364340  0.11432173  0.07925563     0.13000
H14         H  0.76904950  0.12197419  0.00009703     0.13000
N15         N  0.87354947  0.94772653  0.32618888    -0.03300
C16         C  0.85212185  0.91612146  0.34239778    -0.00700
C17         C  0.82252513  0.93084645  0.36873449    -0.23600
C18         C  0.82564212  0.97262696  0.36854437    -0.23800
C19         C  0.85724080  0.98240309  0.34223611    -0.00800
H20         H  0.79813582  0.91334795  0.38285784     0.13000
H21         H  0.80412838  0.99362236  0.38259179     0.13000
N22         N  0.04093500  0.94162559  0.76462117    -0.03300
C23         C  0.05332374  0.97363322  0.78824888    -0.00700
C24         C  0.07009511  0.96001352  0.82395576    -0.23600
C25         C  0.07002203  0.91826265  0.82160299    -0.23800
C26         C  0.05335217  0.90761957  0.78443681    -0.00800
H27         H  0.08680127  0.97828744  0.84609983     0.13000
H28         H  0.08671337  0.89835315  0.84166262     0.13000
N29         N  0.93885312  0.62919213  0.09876548    -0.03300
C30         C  0.90280271  0.61358946  0.11345348    -0.00700
C31         C  0.91084893  0.58018233  0.13735342    -0.23600
C32         C  0.95285026  0.57568871  0.13847019    -0.23800
C33         C  0.96954756  0.60644015  0.11514837    -0.00800
H34         H  0.88890967  0.56411127  0.15613863     0.13000
H35         H  0.96948828  0.55564793  0.15848490     0.13000
N36         N  0.94194398  0.26817149  0.92555529    -0.03300
C37         C  0.90936784  0.28428968  0.90505209    -0.00700
C38         C  0.92371557  0.30708374  0.87289993    -0.23600
C39         C  0.96583742  0.30481095  0.87327635    -0.23800
C40         C  0.97633099  0.28085743  0.90569285    -0.00800
H41         H  0.90537128  0.32043314  0.84914499     0.13000
H42         H  0.98645154  0.31643051  0.85032857     0.13000
N43         N  0.70587925  0.86922795  0.99833949    -0.03300
C44         C  0.72161331  0.85039417  0.96462623    -0.00700
C45         C  0.74773304  0.81888983  0.97506165    -0.23600
C46         C  0.74709758  0.81629872  0.01595632    -0.23800
C47         C  0.72125811  0.84684833  0.02935633    -0.00800
H48         H  0.76094048  0.79637829  0.95470435     0.13000
H49         H  0.76127088  0.79268585  0.03386999     0.13000
N50         N  0.28273077  0.03391012  0.02114392    -0.03300
C51         C  0.30274921  0.04911991  0.05412832    -0.00700
C52         C  0.33283818  0.07663909  0.04259397    -0.23600
C53         C  0.33034847  0.07946755  0.00137962    -0.23800
C54         C  0.29830993  0.05415777  0.98873468    -0.00800
H55         H  0.35029663  0.09699267  0.06227423     0.13000
H56         H  0.34514279  0.10301194  0.98365114     0.13000
N57         N  0.88002000  0.94646410  0.69296939    -0.03300
C58         C  0.86804036  0.91431102  0.66916061    -0.00700
C59         C  0.84890338  0.92793631  0.63458818    -0.23600
C60         C  0.84717720  0.96964390  0.63777288    -0.23800
C61         C  0.86593371  0.98042761  0.67394956    -0.00800
H62         H  0.83219954  0.90933883  0.61271176     0.13000
H63         H  0.82956205  0.98939194  0.61829125     0.13000
N64         N  0.03536703  0.94455417  0.25880970    -0.03300
C65         C  0.05179085  0.97684863  0.23890826    -0.00700
C66         C  0.07744622  0.96293424  0.20837270    -0.23600
C67         C  0.07806532  0.92115343  0.21069886    -0.23800
C68         C  0.05224781  0.91058449  0.24212481    -0.00800
H69         H  0.09857214  0.98126767  0.19073286     0.13000
H70         H  0.09933651  0.90128804  0.19489251     0.13000
N71         N  0.96171620  0.70951794  0.94714488    -0.03300
C72         C  0.92989206  0.73033888  0.93069657    -0.00700
C73         C  0.94463348  0.76271723  0.90837595    -0.23600
C74         C  0.98685264  0.76106965  0.91017189    -0.23800
C75         C  0.99683359  0.72778537  0.93367832    -0.00800
H76         H  0.92688466  0.78182580  0.88837287     0.13000
H77         H  0.00785075  0.77876925  0.89181789     0.13000
N78         N  0.95940320  0.21466891  0.08913078    -0.03300
C79         C  0.99270164  0.19442845  0.10404774    -0.00700
C80         C  0.98012216  0.16705990  0.13328969    -0.23600
C81         C  0.93849042  0.17121408  0.13744106    -0.23800
C82         C  0.92662540  0.20102165  0.11074879    -0.00800
H83         H  0.99983739  0.15015489  0.15349776     0.13000
H84         H  0.91980524  0.15798163  0.16110486     0.13000
N85         N  0.36656901  0.47191524  0.85365909    -0.03300
C86         C  0.34667464  0.43854946  0.86809967    -0.00700
C87         C  0.31644209  0.45012020  0.89501936    -0.23600
C88         C  0.31679216  0.49200339  0.89631123    -0.23800
C89         C  0.34737951  0.50523051  0.87004079    -0.00800
H90         H  0.29312691  0.43049858  0.90813227     0.13000
H91         H  0.29307956  0.51044925  0.91037093     0.13000
N92         N  0.36068783  0.44178978  0.27011857    -0.03300
C93         C  0.34396617  0.47458339  0.28957971    -0.00700
C94         C  0.32418986  0.46226769  0.32434050    -0.23600
C95         C  0.32760258  0.42063020  0.32579019    -0.23800
C96         C  0.34954895  0.40849341  0.29189345    -0.00800
H97         H  0.30444604  0.48084362  0.34338441     0.13000
H98         H  0.31064372  0.40096721  0.34608432     0.13000
N99         N  0.13958632  0.33919628  0.54875427    -0.03300
C100        C  0.12402369  0.32032480  0.51504326    -0.00700
C101        C  0.09646164  0.29012572  0.52545214    -0.23600
C102        C  0.09461728  0.29016310  0.56667405    -0.23800
C103        C  0.12091505  0.32082308  0.58101935    -0.00800
H104        H  0.08217394  0.26786673  0.50532071     0.13000
H105        H  0.07888074  0.26700606  0.58398408     0.13000
O106        O  0.16370700  0.12767450  0.72139243    -0.80700
O107        O  0.28476904  0.27010041  0.78302011    -0.65400
O108        O  0.22639671  0.17073581  0.76184201    -1.12000
C109        C  0.13809082  0.22596483  0.86556398     1.06200
O110        O  0.28462157  0.25714059  0.84809484    -0.78600
O111        O  0.23894658  0.19642277  0.88302094    -0.66200
Ni112      Ni  0.21152823  0.15998748  0.70638510     1.34900
C113        C  0.22860688  0.16035465  0.87223606     0.84900
O114        O  0.29908842  0.20597930  0.73443577    -0.79100
O115        O  0.25958961  0.18711747  0.68260440    -0.89400
C116        C  0.29597593  0.27930728  0.81867339     0.84500
O117        O  0.17981372  0.20903520  0.70446938    -0.67600
O118        O  0.17012590  0.24503442  0.87858358    -0.86900
C119        C  0.19465522  0.24492263  0.70934800     0.85300
C120        C  0.29462516  0.19735344  0.69717942     1.06900
H121        H  0.19690807  0.25562570  0.79709440     0.38700
O122        O  0.21287762  0.23333462  0.80777256    -1.09500
O123        O  0.20806626  0.15251622  0.84028876    -0.66200
Ni124      Ni  0.18216193  0.18477553  0.79871163     1.26300
O125        O  0.22756122  0.25166488  0.72969483    -0.66400
O126        O  0.13895649  0.20129364  0.83529576    -0.78700
C127        C  0.14527686  0.11810145  0.75399414     0.84700
O128        O  0.15132408  0.13670523  0.78730142    -0.65900
Ni129      Ni  0.22707692  0.24940205  0.86175524     1.27400
Ni130      Ni  0.25620782  0.22051132  0.77101284     1.26100
H131        H  0.24217902  0.14801870  0.77189451     0.39300
N132        N  0.75503440  0.36241087  0.50194001    -0.03300
C133        C  0.76983805  0.34325793  0.46811351    -0.00700
C134        C  0.80008507  0.31574247  0.47855144    -0.23600
C135        C  0.80386563  0.31744392  0.51967757    -0.23800
C136        C  0.77649446  0.34672336  0.53346747    -0.00800
H137        H  0.81411026  0.29311700  0.45883075     0.13000
H138        H  0.82142142  0.29629814  0.53770338     0.13000
N139        N  0.47671939  0.20783441  0.59600251    -0.03300
C140        C  0.51355171  0.22601568  0.60479236    -0.00700
C141        C  0.50696040  0.26161935  0.62674674    -0.23600
C142        C  0.46517081  0.26475445  0.63269238    -0.23800
C143        C  0.44719575  0.23093974  0.61422787    -0.00800
H144        H  0.53033421  0.27997104  0.64184350     0.13000
H145        H  0.45022216  0.28606073  0.65315916     0.13000
O146        O  0.75830766  0.13501559  0.70065212    -0.80700
O147        O  0.64460488  0.27284935  0.75562877    -0.65400
O148        O  0.74087716  0.20920429  0.74001902    -1.12000
C149        C  0.69430296  0.13510280  0.85186269     1.06200
O150        O  0.64724163  0.27559638  0.82260863    -0.78600
O151        O  0.72093237  0.24230565  0.85040020    -0.66200
Ni152      Ni  0.75599282  0.19193905  0.68662564     1.34900
C153        C  0.75527479  0.22422191  0.84482034     0.84900
O154        O  0.70933965  0.28135101  0.70666586    -0.79100
O155        O  0.75658723  0.24759386  0.66933923    -0.89400
C156        C  0.63228015  0.28753355  0.78904629     0.84500
O157        O  0.70217641  0.18407293  0.66241610    -0.67600
O158        O  0.68043085  0.16986236  0.86316236    -0.86900
C159        C  0.66631145  0.19407665  0.67438331     0.85300
C160        C  0.73573556  0.27947261  0.67804692     1.06900
H161        H  0.65422856  0.18662829  0.77711472     0.38700
O162        O  0.67814618  0.20191747  0.78619283    -1.09500
O163        O  0.75949472  0.19477992  0.81945479    -0.66200
Ni164      Ni  0.72576407  0.16822392  0.77813627     1.26300
O165        O  0.65994528  0.21307516  0.70741347    -0.66400
O166        O  0.70900887  0.12830650  0.81674873    -0.78700
C167        C  0.77921560  0.12130182  0.73008151     0.84700
O168        O  0.77316535  0.13510846  0.76569077    -0.65900
Ni169      Ni  0.66630542  0.22176652  0.83963973     1.27400
Ni170      Ni  0.69298683  0.24179816  0.74668712     1.26100
H171        H  0.76399892  0.22469757  0.75067453     0.39300
N172        N  0.20911480  0.49900094  0.53000244    -0.03300
C173        C  0.22706627  0.50882252  0.49420220    -0.00700
C174        C  0.26548212  0.52621564  0.50103112    -0.23600
C175        C  0.27042384  0.52942603  0.54204432    -0.23800
C176        C  0.23511536  0.51344354  0.55908971    -0.00800
H177        H  0.28452508  0.54146341  0.47887265     0.13000
H178        H  0.29405233  0.54724283  0.55741704     0.13000
O179        O  0.26602730  0.76074676  0.69090951    -0.80700
O180        O  0.16063549  0.71052365  0.84142630    -0.65400
O181        O  0.24854427  0.72742043  0.76736660    -1.12000
C182        C  0.20468054  0.60859874  0.70137600     1.06200
O183        O  0.14654900  0.64434221  0.83230179    -0.78600
O184        O  0.22746340  0.62560825  0.81136979    -0.66200
Ni185      Ni  0.25641087  0.78103630  0.74542746     1.34900
C186        C  0.26205152  0.62881002  0.79336064     0.84900
O187        O  0.22592547  0.75950215  0.84083621    -0.79100
O188        O  0.24966151  0.80721328  0.79798929    -0.89400
C189        C  0.14033235  0.67851602  0.85008325     0.84500
O190        O  0.20002012  0.79120626  0.73182699    -0.67600
O191        O  0.19861246  0.59686229  0.73746556    -0.86900
C192        C  0.16824470  0.78522092  0.75332967     0.85300
C193        C  0.24010106  0.79503980  0.83332836     1.06900
H194        H  0.16036840  0.68914476  0.75161490     0.38700
O195        O  0.18487284  0.67961692  0.76515052    -1.09500
O196        O  0.26586216  0.64684121  0.75938089    -0.66200
Ni197      Ni  0.23159363  0.68595766  0.73043249     1.26300
O198        O  0.16814042  0.75978009  0.78208918    -0.66400
O199        O  0.21275862  0.64548559  0.69328976    -0.78700
C200        C  0.28568340  0.72878151  0.68008714     0.84700
O201        O  0.27838094  0.69470896  0.69660366    -0.65900
Ni202      Ni  0.17531922  0.62502983  0.78444924     1.27400
Ni203      Ni  0.20450554  0.71946963  0.80420852     1.26100
H204        H  0.27401250  0.71972235  0.78035917     0.39300
N205        N  0.52170394  0.46042561  0.77167909    -0.03300
C206        C  0.53521146  0.49370306  0.75127103    -0.00700
C207        C  0.55849601  0.48177453  0.71828840    -0.23600
C208        C  0.56035033  0.43998695  0.71884309    -0.23800
C209        C  0.53810669  0.42738162  0.75216646    -0.00800
H210        H  0.57676485  0.50147121  0.69916125     0.13000
H211        H  0.58007761  0.42121434  0.69995377     0.13000
N212        N  0.45951441  0.76724216  0.57904239    -0.03300
C213        C  0.49063267  0.78715911  0.59894112    -0.00700
C214        C  0.47524515  0.81533102  0.62634270    -0.23600
C215        C  0.43333134  0.81215845  0.62449492    -0.23800
C216        C  0.42438020  0.78201871  0.59616764    -0.00800
H217        H  0.49258894  0.83227945  0.64901731     0.13000
H218        H  0.41194397  0.82597635  0.64567076     0.13000
N219        N  0.68371402  0.52251879  0.51030972    -0.03300
C220        C  0.66606435  0.53811638  0.54456970    -0.00700
C221        C  0.62931408  0.55706882  0.53497666    -0.23600
C222        C  0.62532435  0.55552186  0.49386278    -0.23800
C223        C  0.65911600  0.53450750  0.47925271    -0.00800
H224        H  0.61117828  0.57633585  0.55492841     0.13000
H225        H  0.60296900  0.57240449  0.47649812     0.13000
O226        O  0.78977316  0.73522846  0.69158847    -0.80700
O227        O  0.63506721  0.64872865  0.75215428    -0.65400
O228        O  0.71454373  0.73092606  0.73015036    -1.12000
C229        C  0.78412666  0.68825723  0.84483767     1.06200
O230        O  0.64012447  0.64889571  0.81945592    -0.78600
O231        O  0.67648595  0.72482313  0.83438593    -0.66200
Ni232      Ni  0.73289547  0.74043683  0.67610324     1.34900
C233        C  0.70112922  0.75498902  0.83026602     0.84900
O234        O  0.63713428  0.71064222  0.69998140    -0.79100
O235        O  0.67698063  0.74707024  0.65758340    -0.89400
C236        C  0.62325818  0.63665532  0.78661446     0.84500
O237        O  0.73247638  0.68537529  0.65615209    -0.67600
O238        O  0.74735493  0.68535396  0.85826011    -0.86900
C239        C  0.71448335  0.65271880  0.66689975     0.85300
C240        C  0.64201581  0.73279634  0.66869611     1.06900
H241        H  0.72421163  0.64425998  0.77177902     0.38700
O242        O  0.71351802  0.67076681  0.77948526    -1.09500
O243        O  0.73328701  0.75184371  0.80822536    -0.66200
Ni244      Ni  0.75383792  0.71203026  0.76877176     1.26300
O245        O  0.69468701  0.65044638  0.70012002    -0.66400
O246        O  0.79185272  0.69162378  0.80743092    -0.78700
C247        C  0.80402569  0.75862005  0.71912040     0.84700
O248        O  0.79279023  0.75347876  0.75530916    -0.65900
Ni249      Ni  0.69450306  0.66907006  0.83456352     1.27400
Ni250      Ni  0.67461395  0.68975037  0.73974106     1.26100
H251        H  0.70319608  0.75653402  0.73972791     0.39300
N252        N  0.44924423  0.12116767  0.44712644    -0.03300
C253        C  0.41346087  0.10191373  0.43656860    -0.00700
C254        C  0.42188657  0.07022044  0.40977558    -0.23600
C255        C  0.46357509  0.07049685  0.40321259    -0.23800
C256        C  0.47980020  0.10232985  0.42607177    -0.00800
H257        H  0.39968551  0.05289677  0.39199826     0.13000
H258        H  0.47937342  0.05315816  0.37990413     0.13000
O259        O  0.63384369  0.12678864  0.31358226    -0.80700
O260        O  0.77138140  0.19765731  0.20470780    -0.65400
O261        O  0.70504466  0.17365765  0.29616209    -1.12000
C262        C  0.62331232  0.28049452  0.24934850     1.06200
O263        O  0.76929337  0.26515649  0.21282672    -0.78600
O264        O  0.73126663  0.28454403  0.28535700    -0.66200
Ni265      Ni  0.69246336  0.11767992  0.30883607     1.34900
C266        C  0.71033922  0.27651841  0.31685589     0.84900
O267        O  0.78265564  0.14798540  0.26675634    -0.79100
O268        O  0.74995062  0.10395846  0.30763174    -0.89400
C269        C  0.78341642  0.23321319  0.19536921     0.84500
O270        O  0.68487029  0.09559444  0.25493920    -0.67600
O271        O  0.65869510  0.29674695  0.24357407    -0.86900
C272        C  0.69601080  0.10914583  0.22074881     0.85300
C273        C  0.78224525  0.11726744  0.29003642     1.06900
H274        H  0.68415011  0.21240200  0.21057476     0.38700
O275        O  0.69684885  0.22127319  0.23564849    -1.09500
O276        O  0.68032826  0.25128792  0.31571576    -0.66200
Ni277      Ni  0.66093387  0.20846917  0.27940740     1.26300
O278        O  0.71525519  0.14286016  0.21659694    -0.66400
O279        O  0.61831933  0.24350752  0.26005879    -0.78700
C280        C  0.61643770  0.15666911  0.33165747     0.84700
O281        O  0.62631558  0.19323397  0.32355407    -0.65900
Ni282      Ni  0.71336060  0.27748272  0.23036955     1.27400
Ni283      Ni  0.73945496  0.18448582  0.25069491     1.26100
H284        H  0.71827105  0.18547835  0.31976050     0.39300
N285        N  0.45852697  0.75325039  0.40663997    -0.03300
C286        C  0.48861440  0.75769077  0.37834401    -0.00700
C287        C  0.47153467  0.76324171  0.34053927    -0.23600
C288        C  0.42969067  0.76307890  0.34546718    -0.23800
C289        C  0.42246712  0.75713166  0.38607820    -0.00800
H290        H  0.48787848  0.76535283  0.31211213     0.13000
H291        H  0.40680433  0.76573142  0.32181257     0.13000
N292        N  0.51599627  0.43777359  0.18885356    -0.03300
C293        C  0.53183322  0.40167230  0.17583900    -0.00700
C294        C  0.55772949  0.40846821  0.14338414    -0.23600
C295        C  0.55857326  0.44990812  0.13719827    -0.23800
C296        C  0.53321222  0.46756284  0.16604302    -0.00800
H297        H  0.57890754  0.38670362  0.13000652     0.13000
H298        H  0.58064833  0.46566677  0.11830759     0.13000
O299        O  0.75863016  0.75214756  0.32174345    -0.80700
O300        O  0.62827187  0.62482140  0.24864635    -0.65400
O301        O  0.72634745  0.68447418  0.27695843    -1.12000
C302        C  0.68509172  0.76970585  0.16920011     1.06200
O303        O  0.64059875  0.62679718  0.18296298    -0.78600
O304        O  0.71165105  0.66479580  0.15879800    -0.66200
Ni305      Ni  0.73567533  0.69886359  0.33277324     1.34900
C306        C  0.74670330  0.67764521  0.17091341     0.84900
O307        O  0.68880825  0.61041432  0.30079477    -0.79100
O308        O  0.71665333  0.64661206  0.35174714    -0.89400
C309        C  0.62105952  0.61221678  0.21295114     0.84500
O310        O  0.68248100  0.72247913  0.34174510    -0.67600
O311        O  0.66893651  0.73719763  0.15452231    -0.86900
C312        C  0.64759685  0.70729874  0.33215286     0.85300
C313        C  0.70149984  0.61365726  0.33704550     1.06900
H314        H  0.64315689  0.71268872  0.23684206     0.38700
O315        O  0.66677773  0.69731012  0.22758363    -1.09500
O316        O  0.75030257  0.70282581  0.20041372    -0.66200
Ni317      Ni  0.71525236  0.72839062  0.24039447     1.26300
O318        O  0.64310132  0.67993261  0.30471946    -0.66400
O319        O  0.70227807  0.77148288  0.20380094    -0.78700
C320        C  0.77391478  0.76944325  0.29087108     0.84700
O321        O  0.76360860  0.75886027  0.25528408    -0.65900
Ni322      Ni  0.65673017  0.68263032  0.17197711     1.27400
Ni323      Ni  0.67723410  0.65381930  0.26414680     1.26100
H324        H  0.74991547  0.66904652  0.26765388     0.39300
O325        O  0.13351167  0.61930476  0.21519861    -0.80700
O326        O  0.24974674  0.69107717  0.35352612    -0.65400
O327        O  0.15898205  0.66212479  0.28547490    -1.12000
C328        C  0.21201959  0.77421599  0.20677958     1.06200
O329        O  0.23230008  0.75522220  0.35004336    -0.78600
O330        O  0.17673679  0.78866996  0.29810240    -0.66200
Ni331      Ni  0.15347843  0.60598227  0.26879120     1.34900
C332        C  0.14159408  0.77542255  0.28684166     0.84900
O333        O  0.18752907  0.63756872  0.36100028    -0.79100
O334        O  0.16994948  0.58459587  0.32124323    -0.89400
C335        C  0.25653092  0.72811012  0.36319636     0.84500
O336        O  0.20857978  0.60201898  0.24877942    -0.67600
O337        O  0.23306344  0.78474460  0.23785808    -0.86900
C338        C  0.24113926  0.60858968  0.26934670     0.85300
C339        C  0.17885392  0.59982606  0.35594955     1.06900
H340        H  0.24335205  0.70227676  0.26446019     0.38700
O341        O  0.21928419  0.71263895  0.27832451    -1.09500
O342        O  0.13652114  0.74046933  0.27015951    -0.66200
Ni343      Ni  0.17295726  0.70162136  0.24473213     1.26300
O344        O  0.24176488  0.63439133  0.29845643    -0.66400
O345        O  0.18808101  0.74277140  0.20544829    -0.78700
C346        C  0.11647349  0.65093356  0.20043307     0.84700
O347        O  0.12665298  0.68691475  0.21176716    -0.65900
Ni348      Ni  0.23180121  0.76809557  0.29348917     1.27400
Ni349      Ni  0.20430166  0.67517549  0.32022523     1.26100
H350        H  0.13372333  0.66997922  0.29890012     0.39300
O351        O  0.24745930  0.12635046  0.35046894    -0.80700
O352        O  0.15281270  0.19147255  0.19957575    -0.65400
O353        O  0.23592940  0.16890162  0.27743176    -1.12000
C354        C  0.17570012  0.27254232  0.35698366     1.06200
O355        O  0.14303341  0.25770934  0.21190766    -0.78600
O356        O  0.21340459  0.28254233  0.25293461    -0.66200
Ni357      Ni  0.24498281  0.11322585  0.29326676     1.34900
C358        C  0.24648240  0.27567830  0.27234676     0.84900
O359        O  0.22017072  0.14458434  0.19880221    -0.79100
O360        O  0.24597558  0.09471412  0.23759583    -0.89400
C361        C  0.13608256  0.22534211  0.19102633     0.84500
O362        O  0.18824018  0.09731644  0.29908139    -0.67600
O363        O  0.16658165  0.28905029  0.32336737    -0.86900
C364        C  0.15727078  0.10602906  0.27739759     0.85300
C365        C  0.23781554  0.11003860  0.20317374     1.06900
H366        H  0.14544169  0.20044926  0.29020102     0.38700
O367        O  0.17037163  0.21307883  0.28015521    -1.09500
O368        O  0.24838006  0.24842360  0.29963373    -0.66200
Ni369      Ni  0.21392352  0.20371534  0.31811311     1.26300
O370        O  0.15802328  0.13546579  0.25271650    -0.66400
O371        O  0.19039593  0.23689156  0.35903506    -0.78700
C372        C  0.26677054  0.15684669  0.36564778     0.84700
O373        O  0.25832137  0.19257235  0.35408314    -0.65900
Ni374      Ni  0.15793096  0.26927774  0.26799002     1.27400
Ni375      Ni  0.19446473  0.17936735  0.23829842     1.26100
H376        H  0.26185475  0.17983932  0.26784552     0.39300
C377        C  0.56160126  0.51146294  0.22047777    -0.20100
C378        C  0.54345625  0.50893921  0.18206079    -0.06700
C379        C  0.54524768  0.54329499  0.15668117     0.14200
C380        C  0.56923911  0.57743197  0.16840442    -0.20200
C381        C  0.59077287  0.57841861  0.20539504    -0.06700
C382        C  0.58472943  0.54583994  0.23268768     0.14200
C383        C  0.60413363  0.54582519  0.27389389    -0.23500
H384        H  0.56069623  0.48501423  0.23984858     0.15500
H385        H  0.57214355  0.60301287  0.14801646     0.15500
C386        C  0.52224735  0.54368123  0.11710493    -0.23400
H387        H  0.59696033  0.51742888  0.29071704     0.05700
H388        H  0.59172277  0.57195471  0.29167932     0.08900
H389        H  0.63818401  0.54830057  0.27121641     0.08900
H390        H  0.48888057  0.53839178  0.12273789     0.08900
H391        H  0.53386540  0.51945047  0.09642629     0.08900
H392        H  0.52573439  0.57349106  0.10164589     0.05700
C393        C  0.35349710  0.78548855  0.39645840    -0.20100
C394        C  0.38002119  0.75220315  0.40160933    -0.06700
C395        C  0.36295039  0.71263088  0.40511838     0.14200
C396        C  0.32071266  0.70667720  0.39779217    -0.20200
C397        C  0.29539871  0.73902833  0.38521576    -0.06700
C398        C  0.31142720  0.77955401  0.38761075     0.14200
C399        C  0.28590711  0.81656973  0.37776462    -0.23500
H400        H  0.36683519  0.81587375  0.39403673     0.15500
H401        H  0.30842692  0.67577564  0.39812140     0.15500
C402        C  0.38970823  0.67598421  0.41269355    -0.23400
H403        H  0.30321984  0.84551579  0.38340168     0.05700
H404        H  0.25786855  0.81722318  0.39700947     0.08900
H405        H  0.27712592  0.81600685  0.34533761     0.08900
H406        H  0.40353934  0.67875280  0.44318917     0.08900
H407        H  0.41440697  0.67373248  0.38955809     0.08900
H408        H  0.37166963  0.64698714  0.41165551     0.05700
C409        C  0.54356831  0.70709700  0.38500545    -0.20100
C410        C  0.53290821  0.74843134  0.38253105    -0.06700
C411        C  0.56290862  0.77713470  0.36987158     0.14200
C412        C  0.60155373  0.76331625  0.35621469    -0.20200
C413        C  0.61019149  0.72134480  0.35386817    -0.06700
C414        C  0.58169015  0.69308552  0.37041709     0.14200
C415        C  0.59088535  0.64797737  0.37195635    -0.23500
H416        H  0.52039634  0.68512288  0.39439966     0.15500
H417        H  0.62385291  0.78506959  0.34464930     0.15500
C418        C  0.55324690  0.82216795  0.36897076    -0.23400
H419        H  0.56624244  0.63074753  0.38784539     0.05700
H420        H  0.62027929  0.64316500  0.38842892     0.08900
H421        H  0.59325886  0.63504228  0.34093124     0.08900
H422        H  0.54418057  0.83277016  0.39968948     0.08900
H423        H  0.52759285  0.82806754  0.34764603     0.08900
H424        H  0.58031293  0.84053730  0.35919077     0.05700
C425        C  0.56226256  0.29603436  0.20771708    -0.20100
C426        C  0.58730169  0.30641855  0.24094271    -0.06700
C427        C  0.58399506  0.34574341  0.25871324     0.14200
C428        C  0.55990552  0.37539623  0.23967035    -0.20200
C429        C  0.53981495  0.36674624  0.20289939    -0.06700
C430        C  0.53869750  0.32598745  0.18823318     0.14200
C431        C  0.51434254  0.31466086  0.15092445    -0.23500
H432        H  0.56439606  0.26560675  0.19450887     0.15500
H433        H  0.56078920  0.40656601  0.25110212     0.15500
C434        C  0.60759193  0.35704396  0.29658380    -0.23400
H435        H  0.51603389  0.28134748  0.14413472     0.05700
H436        H  0.52631957  0.33122626  0.12429371     0.08900
H437        H  0.48144860  0.32274347  0.15557768     0.08900
H438        H  0.64130705  0.35568465  0.29108170     0.08900
H439        H  0.59937440  0.33549710  0.32104858     0.08900
H440        H  0.60024960  0.38854041  0.30720110     0.05700
C441        C  0.58740468  0.11233383  0.38517925    -0.20100
C442        C  0.58365819  0.14794116  0.36199787    -0.06700
C443        C  0.54858727  0.17310281  0.36783455     0.14200
C444        C  0.51654708  0.15964743  0.39327535    -0.20200
C445        C  0.51891310  0.12212584  0.41341532    -0.06700
C446        C  0.55570256  0.09940452  0.41104536     0.14200
C447        C  0.56119663  0.06109974  0.43537002    -0.23500
H448        H  0.61496733  0.09389763  0.38230993     0.15500
H449        H  0.48811843  0.17688269  0.39479066     0.15500
C450        C  0.54333650  0.21273622  0.34557414    -0.23400
H451        H  0.59232829  0.04774232  0.43098624     0.05700
H452        H  0.53811216  0.03754285  0.42638136     0.08900
H453        H  0.55740677  0.06849733  0.46799186     0.08900
H454        H  0.54461272  0.20701868  0.31245300     0.08900
H455        H  0.56804663  0.23466425  0.35457807     0.08900
H456        H  0.51329346  0.22737680  0.35258068     0.05700
C457        C  0.37148375  0.16131218  0.41756053    -0.20100
C458        C  0.37268867  0.12233250  0.43472628    -0.06700
C459        C  0.33564046  0.09957080  0.43767209     0.14200
C460        C  0.30000883  0.11349702  0.41792710    -0.20200
C461        C  0.30043493  0.14988095  0.39559843    -0.06700
C462        C  0.33597825  0.17545047  0.39789429     0.14200
C463        C  0.33861536  0.21580318  0.37646098    -0.23500
H464        H  0.39981690  0.17878088  0.41510267     0.15500
H465        H  0.27244854  0.09456072  0.41785483     0.15500
C466        C  0.33407356  0.05991486  0.46046459    -0.23400
H467        H  0.36889507  0.23117195  0.38132439     0.05700
H468        H  0.31444939  0.23676615  0.38804528     0.08900
H469        H  0.33477863  0.21073863  0.34344742     0.08900
H470        H  0.34403650  0.06546410  0.49217828     0.08900
H471        H  0.35454013  0.03677146  0.44639388     0.08900
H472        H  0.30237034  0.04685517  0.46101024     0.05700
C473        C  0.71681316  0.58935065  0.56865331    -0.20100
C474        C  0.68998729  0.55716132  0.57831935    -0.06700
C475        C  0.67801580  0.55226283  0.61892976     0.14200
C476        C  0.68992307  0.58180072  0.64818506    -0.20200
C477        C  0.71315325  0.61685366  0.63776709    -0.06700
C478        C  0.72882067  0.61903413  0.59751400     0.14200
C479        C  0.75624592  0.65345520  0.58326812    -0.23500
H480        H  0.72556298  0.59330583  0.53730183     0.15500
H481        H  0.67851540  0.57874729  0.67877946     0.15500
C482        C  0.65109314  0.51672501  0.63089617    -0.23400
H483        H  0.76737159  0.64814870  0.55189783     0.05700
H484        H  0.78386255  0.65608670  0.60302074     0.08900
H485        H  0.73897767  0.68267942  0.58319728     0.08900
H486        H  0.66661899  0.48759498  0.62265420     0.08900
H487        H  0.62096658  0.51816708  0.61502409     0.08900
H488        H  0.64510544  0.51671552  0.66393603     0.05700
C489        C  0.71434203  0.54945947  0.42962388    -0.20100
C490        C  0.67311295  0.53821730  0.43652226    -0.06700
C491        C  0.64471394  0.54107159  0.40414008     0.14200
C492        C  0.65621016  0.56233924  0.36928798    -0.20200
C493        C  0.69578035  0.57924874  0.36523606    -0.06700
C494        C  0.72611314  0.56963827  0.39424076     0.14200
C495        C  0.77069804  0.58194479  0.38957941    -0.23500
H496        H  0.73689502  0.54606264  0.45327861     0.15500
H497        H  0.63295447  0.56895011  0.34709310     0.15500
C498        C  0.60168890  0.52355414  0.40604984    -0.23400
H499        H  0.79041021  0.55438575  0.39190208     0.05700
H500        H  0.77942124  0.60398991  0.41394425     0.08900
H501        H  0.77715988  0.59602282  0.35988840     0.08900
H502        H  0.57877845  0.54865716  0.40497980     0.08900
H503        H  0.59653274  0.50537314  0.43371483     0.08900
H504        H  0.59654910  0.50276897  0.37970820     0.05700
C505        C  0.45780633  0.79741836  0.51174242    -0.20100
C506        C  0.46155840  0.76230058  0.53556404    -0.06700
C507        C  0.46721477  0.72398527  0.51609800     0.14200
C508        C  0.46908629  0.72194371  0.47346496    -0.20200
C509        C  0.46319992  0.75693829  0.44990823    -0.06700
C510        C  0.45827744  0.79523020  0.46945026     0.14200
C511        C  0.45324510  0.83445155  0.44651980    -0.23500
H512        H  0.45385326  0.82690400  0.52654905     0.15500
H513        H  0.47338944  0.69264256  0.45847267     0.15500
C514        C  0.46985525  0.68480704  0.53920327    -0.23400
H515        H  0.42280260  0.84809449  0.45377517     0.05700
H516        H  0.45522103  0.83016104  0.41333513     0.08900
H517        H  0.47794846  0.85636749  0.45562101     0.08900
H518        H  0.46425091  0.68949260  0.57185951     0.08900
H519        H  0.50080003  0.67103801  0.53488949     0.08900
H520        H  0.44599380  0.66300319  0.52789250     0.05700
C521        C  0.53519103  0.73033114  0.62011681    -0.20100
C522        C  0.53240080  0.77022699  0.60525426    -0.06700
C523        C  0.56755103  0.79596944  0.60708090     0.14200
C524        C  0.60335896  0.78235262  0.62655774    -0.20200
C525        C  0.60505479  0.74352399  0.64436478    -0.06700
C526        C  0.57113422  0.71640718  0.63910546     0.14200
C527        C  0.57221356  0.67287766  0.65359588    -0.23500
H528        H  0.50804278  0.71098769  0.62006730     0.15500
H529        H  0.62951993  0.80302268  0.62930543     0.15500
C530        C  0.56768293  0.83849691  0.58996438    -0.23400
H531        H  0.54415307  0.65543405  0.64440683     0.05700
H532        H  0.57372113  0.67256515  0.68695754     0.08900
H533        H  0.59943552  0.65692762  0.64067467     0.08900
H534        H  0.53854742  0.84580716  0.57406457     0.08900
H535        H  0.59318953  0.84137254  0.56777659     0.08900
H536        H  0.57250007  0.86127081  0.61470857     0.05700
C537        C  0.56883456  0.53559064  0.80408815    -0.20100
C538        C  0.54285104  0.53427169  0.77018321    -0.06700
C539        C  0.53583748  0.57046271  0.74853223     0.14200
C540        C  0.55925860  0.60560621  0.75784283    -0.20200
C541        C  0.58997702  0.60512928  0.78784872    -0.06700
C542        C  0.59275972  0.57049746  0.81314764     0.14200
C543        C  0.62348903  0.56840228  0.84728570    -0.23500
H544        H  0.57419023  0.50768122  0.82064623     0.15500
H545        H  0.55554365  0.63267225  0.73979043     0.15500
C546        C  0.50510856  0.57129999  0.71437312    -0.23400
H547        H  0.62182144  0.53867221  0.86316912     0.05700
H548        H  0.61702893  0.59293370  0.86984854     0.08900
H549        H  0.65532735  0.57196867  0.83542839     0.08900
H550        H  0.47416982  0.56241600  0.72582486     0.08900
H551        H  0.51428968  0.54967638  0.68995564     0.08900
H552        H  0.50280100  0.60227566  0.70109767     0.05700
C553        C  0.31366411  0.76378737  0.61944783    -0.20100
C554        C  0.31774489  0.73245320  0.64798571    -0.06700
C555        C  0.35503074  0.70987813  0.64881860     0.14200
C556        C  0.38858628  0.72277299  0.62511173    -0.20200
C557        C  0.38602881  0.75793273  0.60134523    -0.06700
C558        C  0.34741802  0.77673890  0.59615354     0.14200
C559        C  0.34269353  0.81211954  0.56777836    -0.23500
H560        H  0.28477450  0.78017695  0.61739663     0.15500
H561        H  0.41836871  0.70843926  0.62909794     0.15500
C562        C  0.36121566  0.67462987  0.67712029    -0.23400
H563        H  0.31034468  0.82309273  0.56676332     0.05700
H564        H  0.35170560  0.80232929  0.53677807     0.08900
H565        H  0.36266438  0.83809503  0.57755034     0.08900
H566        H  0.33856905  0.65000246  0.66992928     0.08900
H567        H  0.35729611  0.68510632  0.70892497     0.08900
H568        H  0.39256203  0.66133321  0.67426836     0.05700
C569        C  0.18004081  0.55918866  0.46380853    -0.20100
C570        C  0.20337640  0.52343536  0.45875606    -0.06700
C571        C  0.21235273  0.50948559  0.41926307     0.14200
C572        C  0.20127484  0.53359755  0.38591435    -0.20200
C573        C  0.18213875  0.57190562  0.39127534    -0.06700
C574        C  0.16954354  0.58373360  0.43071380     0.14200
C575        C  0.14547806  0.62239247  0.43834213    -0.23500
H576        H  0.17299687  0.56981546  0.49414855     0.15500
H577        H  0.21011522  0.52373160  0.35576675     0.15500
C578        C  0.23484175  0.46979391  0.41261876    -0.23400
H579        H  0.13577141  0.62522769  0.47044499     0.05700
H580        H  0.11723767  0.62224368  0.41932358     0.08900
H581        H  0.16460642  0.64964553  0.43138141     0.08900
H582        H  0.21713063  0.44444586  0.42661346     0.08900
H583        H  0.26596572  0.47153992  0.42656917     0.08900
H584        H  0.23854950  0.46257201  0.37995066     0.05700
C585        C  0.22962238  0.54344651  0.67001189    -0.20100
C586        C  0.20491199  0.57855979  0.66750392    -0.06700
C587        C  0.18437846  0.58689143  0.63078967     0.14200
C588        C  0.19192381  0.56215374  0.59679059    -0.20200
C589        C  0.22022414  0.52996772  0.59815642    -0.06700
C590        C  0.23868162  0.51984450  0.63530933     0.14200
C591        C  0.26887865  0.48513570  0.63793329    -0.23500
H592        H  0.24385702  0.53581402  0.69847085     0.15500
H593        H  0.17791944  0.56989019  0.56815499     0.15500
C594        C  0.15471436  0.62205866  0.62707784    -0.23400
H595        H  0.28028851  0.48108618  0.66929958     0.05700
H596        H  0.29589785  0.49127915  0.61827607     0.08900
H597        H  0.25372837  0.45620032  0.62788159     0.08900
H598        H  0.17120081  0.65168963  0.63074671     0.08900
H599        H  0.13031538  0.61951225  0.65046569     0.08900
H600        H  0.13941848  0.62220032  0.59701990     0.05700
C601        C  0.57172789  0.38697954  0.80581319    -0.20100
C602        C  0.54760793  0.38716983  0.77044612    -0.06700
C603        C  0.54594986  0.35131453  0.74622899     0.14200
C604        C  0.57213019  0.31856236  0.75480729    -0.20200
C605        C  0.60001303  0.32007519  0.78741531    -0.06700
C606        C  0.59803373  0.35386688  0.81464298     0.14200
C607        C  0.62557638  0.35675780  0.85123944    -0.23500
H608        H  0.57325666  0.41452326  0.82434798     0.15500
H609        H  0.57196650  0.29221525  0.73455521     0.15500
C610        C  0.51867916  0.34778481  0.70945827    -0.23400
H611        H  0.62078596  0.38575224  0.86840597     0.05700
H612        H  0.65842818  0.35560413  0.84183372     0.08900
H613        H  0.61873492  0.33105683  0.87187726     0.08900
H614        H  0.53806372  0.34488276  0.68193876     0.08900
H615        H  0.49825802  0.37457832  0.70605605     0.08900
H616        H  0.49869390  0.32021828  0.71194986     0.05700
C617        C  0.46759985  0.14346862  0.55784315    -0.20100
C618        C  0.46935029  0.18620882  0.55839597    -0.06700
C619        C  0.46396342  0.20768242  0.52170707     0.14200
C620        C  0.45754378  0.18579158  0.48536403    -0.20200
C621        C  0.45560463  0.14303052  0.48482309    -0.06700
C622        C  0.46058830  0.12163007  0.52151682     0.14200
C623        C  0.45862901  0.07562678  0.52222615    -0.23500
H624        H  0.47166691  0.12728932  0.58595485     0.15500
H625        H  0.45402711  0.20209001  0.45730239     0.15500
C626        C  0.46493205  0.25376186  0.52078472    -0.23400
H627        H  0.46340274  0.06372789  0.55318184     0.05700
H628        H  0.48296350  0.06262081  0.50240015     0.08900
H629        H  0.42793282  0.06489731  0.51150172     0.08900
H630        H  0.49508951  0.26532386  0.53208407     0.08900
H631        H  0.43975783  0.26636200  0.53982127     0.08900
H632        H  0.46059177  0.26542167  0.48967217     0.05700
C633        C  0.55534115  0.17732685  0.64386353    -0.20100
C634        C  0.55296224  0.20358317  0.61066540    -0.06700
C635        C  0.59001114  0.21690907  0.59253221     0.14200
C636        C  0.62816426  0.20759257  0.61077015    -0.20200
C637        C  0.62975777  0.18714011  0.64792290    -0.06700
C638        C  0.59308144  0.16963796  0.66322845     0.14200
C639        C  0.59336561  0.14440543  0.70107798    -0.23500
H640        H  0.52724465  0.16647034  0.65753032     0.15500
H641        H  0.65635660  0.22019335  0.59831958     0.15500
C642        C  0.58900562  0.24291769  0.55532113    -0.23400
H643        H  0.56231336  0.13166823  0.70784390     0.05700
H644        H  0.60301948  0.16339149  0.72741621     0.08900
H645        H  0.61500689  0.11843705  0.69726452     0.08900
H646        H  0.57268362  0.27201066  0.56187533     0.08900
H647        H  0.57259053  0.22614334  0.53068816     0.08900
H648        H  0.62057580  0.25052932  0.54462040     0.05700
C649        C  0.76120576  0.43644603  0.51336429    -0.20100
C650        C  0.73628828  0.40245596  0.50322789    -0.06700
C651        C  0.69372614  0.40845873  0.49686523     0.14200
C652        C  0.67769578  0.44826417  0.49895357    -0.20200
C653        C  0.70254497  0.48239290  0.50915843    -0.06700
C654        C  0.74482144  0.47611580  0.51730562     0.14200
C655        C  0.77270737  0.51040973  0.53123732    -0.23500
H656        H  0.79369309  0.43150959  0.51918617     0.15500
H657        H  0.64503769  0.45272554  0.49360508     0.15500
C658        C  0.66408754  0.37364094  0.48962955    -0.23400
H659        H  0.80529468  0.50034402  0.53342565     0.05700
H660        H  0.76326981  0.52075514  0.56179783     0.08900
H661        H  0.77172048  0.53637509  0.51012920     0.08900
H662        H  0.67891330  0.34359577  0.49312979     0.08900
H663        H  0.65080623  0.37570346  0.45878620     0.08900
H664        H  0.63873338  0.37522168  0.51215023     0.05700
C665        C  0.71757960  0.30426985  0.42986129    -0.20100
C666        C  0.74693156  0.33590382  0.42986078    -0.06700
C667        C  0.76246726  0.34956477  0.39258614     0.14200
C668        C  0.74907094  0.33063026  0.35632054    -0.20200
C669        C  0.72074331  0.29762656  0.35624066    -0.06700
C670        C  0.70377671  0.28534010  0.39398374     0.14200
C671        C  0.67256939  0.25110110  0.39778854    -0.23500
H672        H  0.70783206  0.29183671  0.45854966     0.15500
H673        H  0.76187168  0.34099624  0.32796264     0.15500
C674        C  0.79457114  0.38299150  0.39136101    -0.23400
H675        H  0.66374207  0.24565971  0.42972782     0.05700
H676        H  0.68560205  0.22209496  0.38572818     0.08900
H677        H  0.64387358  0.25899937  0.38136854     0.08900
H678        H  0.82270493  0.37331273  0.40776670     0.08900
H679        H  0.78219912  0.41112616  0.40594940     0.08900
H680        H  0.80350861  0.39040721  0.35987082     0.05700
C681        C  0.72222218  0.34260891  0.58626151    -0.20100
C682        C  0.76396486  0.34911362  0.57667035    -0.06700
C683        C  0.79370561  0.34626345  0.60781243     0.14200
C684        C  0.78249675  0.32801564  0.64441346    -0.20200
C685        C  0.74192029  0.31461448  0.65106799    -0.06700
C686        C  0.71076733  0.32582806  0.62358292     0.14200
C687        C  0.66600383  0.31679684  0.63207423    -0.23500
H688        H  0.69895497  0.34625712  0.56321381     0.15500
H689        H  0.80613450  0.32099110  0.66643454     0.15500
C690        C  0.83737026  0.36137151  0.60219776    -0.23400
H691        H  0.64573863  0.32663333  0.60693731     0.05700
H692        H  0.65641125  0.33335879  0.65998048     0.08900
H693        H  0.66131629  0.28355837  0.63644432     0.08900
H694        H  0.83688324  0.39409127  0.59354881     0.08900
H695        H  0.85374635  0.34363029  0.57856286     0.08900
H696        H  0.85554160  0.35888947  0.63053545     0.05700
C697        C  0.36976935  0.18926225  0.68841804    -0.20100
C698        C  0.33199270  0.19982960  0.67082345    -0.06700
C699        C  0.33201691  0.21396043  0.63031374     0.14200
C700        C  0.37009763  0.22241853  0.61106472    -0.20200
C701        C  0.40777705  0.21402851  0.63014359    -0.06700
C702        C  0.40724259  0.19497541  0.66824966     0.14200
C703        C  0.44627399  0.18040601  0.68790071    -0.23500
H704        H  0.37002189  0.17643212  0.71849447     0.15500
H705        H  0.37049265  0.23623623  0.58144181     0.15500
C706        C  0.29254300  0.22041211  0.60728571    -0.23400
H707        H  0.44033088  0.16651769  0.71783216     0.05700
H708        H  0.46830673  0.20613069  0.69251125     0.08900
H709        H  0.46007935  0.15648684  0.66822224     0.08900
H710        H  0.27276077  0.24286342  0.62308557     0.08900
H711        H  0.27563391  0.19090124  0.60427901     0.08900
H712        H  0.29850634  0.23192567  0.57635978     0.05700
C713        C  0.21667295  0.42466749  0.53577335    -0.20100
C714        C  0.19077878  0.45904013  0.53536608    -0.06700
C715        C  0.14823105  0.45363669  0.54211596     0.14200
C716        C  0.13240298  0.41387525  0.54809028    -0.20200
C717        C  0.15829609  0.37943310  0.54807301    -0.06700
C718        C  0.20115975  0.38515050  0.54232876     0.14200
C719        C  0.23158891  0.35061977  0.54405788    -0.23500
H720        H  0.24954965  0.42898923  0.53142042     0.15500
H721        H  0.09951551  0.40934940  0.55201380     0.15500
C722        C  0.11972682  0.48971819  0.54265280    -0.23400
H723        H  0.24721185  0.34708651  0.51438489     0.05700
H724        H  0.21681868  0.32124596  0.55235712     0.08900
H725        H  0.25529080  0.35763089  0.56743461     0.08900
H726        H  0.12177850  0.50603551  0.51348135     0.08900
H727        H  0.12844223  0.51090517  0.56765855     0.08900
H728        H  0.08715047  0.48017822  0.54731167     0.05700
C729        C  0.18019539  0.30198919  0.46820372    -0.20100
C730        C  0.14204129  0.32102437  0.47380408    -0.06700
C731        C  0.11760295  0.32953568  0.43954354     0.14200
C732        C  0.13085064  0.31651827  0.40088419    -0.20200
C733        C  0.16773914  0.29455083  0.39587743    -0.06700
C734        C  0.19383158  0.28949007  0.42986297     0.14200
C735        C  0.23575989  0.26990791  0.42647560    -0.23500
H736        H  0.19772708  0.29284988  0.49425008     0.15500
H737        H  0.11092189  0.32095181  0.37500608     0.15500
C738        C  0.07663786  0.35059398  0.44412109    -0.23400
H739        H  0.25354888  0.27307024  0.45507267     0.05700
H740        H  0.25386113  0.28496749  0.40229120     0.08900
H741        H  0.23267359  0.23671126  0.41989805     0.08900
H742        H  0.08126687  0.38087517  0.45906460     0.08900
H743        H  0.05544787  0.33183297  0.46272792     0.08900
H744        H  0.06162825  0.35551692  0.41439717     0.05700
C745        C  0.17697976  0.32873589  0.63355111    -0.20100
C746        C  0.13530529  0.32108571  0.62435663    -0.06700
C747        C  0.11131371  0.30138145  0.65437378     0.14200
C748        C  0.13117780  0.27844617  0.68413781    -0.20200
C749        C  0.17427416  0.27894663  0.68768368    -0.06700
C750        C  0.19675735  0.30841666  0.66548831     0.14200
C751        C  0.24158761  0.31745072  0.67405082    -0.23500
H752        H  0.19492890  0.34841645  0.61463524     0.15500
H753        H  0.11300374  0.25901632  0.70373009     0.15500
C754        C  0.06491101  0.30335767  0.65514534    -0.23400
H755        H  0.25429588  0.34074137  0.65319606     0.05700
H756        H  0.26036759  0.28947896  0.67083605     0.08900
H757        H  0.24486457  0.32949478  0.70540939     0.08900
H758        H  0.05151547  0.27219377  0.65141025     0.08900
H759        H  0.05270453  0.32350919  0.63120446     0.08900
H760        H  0.05474617  0.31618401  0.68470407     0.05700
C761        C  0.47514421  0.44756612  0.25080188    -0.20100
C762        C  0.47671620  0.44133149  0.20896431    -0.06700
C763        C  0.43943836  0.43704965  0.18696070     0.14200
C764        C  0.40145172  0.43791742  0.20747755    -0.20200
C765        C  0.39981903  0.44375775  0.24940813    -0.06700
C766        C  0.43720237  0.44908823  0.27128622     0.14200
C767        C  0.43724125  0.45574457  0.31642189    -0.23500
H768        H  0.50364052  0.45074866  0.26758699     0.15500
H769        H  0.37305486  0.43340003  0.19082585     0.15500
C770        C  0.43988195  0.43117115  0.14176209    -0.23400
H771        H  0.46905677  0.45896399  0.32859393     0.05700
H772        H  0.42245528  0.42934161  0.33156134     0.08900
H773        H  0.42035415  0.48419773  0.32419372     0.08900
H774        H  0.45669930  0.40275777  0.13366707     0.08900
H775        H  0.45526340  0.45772291  0.12739773     0.08900
H776        H  0.40817926  0.42857575  0.12919619     0.05700
C777        C  0.31514100  0.36522739  0.24049651    -0.20100
C778        C  0.34131037  0.36730444  0.27419927    -0.06700
C779        C  0.34503495  0.33244304  0.29850208     0.14200
C780        C  0.31622226  0.30043815  0.29413930    -0.20200
C781        C  0.28352653  0.30266522  0.26607667    -0.06700
C782        C  0.28536151  0.33391924  0.23651157     0.14200
C783        C  0.25496195  0.33644790  0.20211758    -0.23500
H784        H  0.31414534  0.39085295  0.22019828     0.15500
H785        H  0.31722294  0.27555146  0.31532894     0.15500
C786        C  0.37796942  0.33032336  0.33056272    -0.23400
H787        H  0.26365028  0.36073935  0.18044214     0.05700
H788        H  0.22383219  0.34412828  0.21374466     0.08900
H789        H  0.25401520  0.30691646  0.18520410     0.08900
H790        H  0.37393488  0.35505120  0.35342073     0.08900
H791        H  0.40877313  0.33370521  0.31627792     0.08900
H792        H  0.37716289  0.30062072  0.34650143     0.05700
C793        C  0.27110454  0.54568756  0.23878919    -0.20100
C794        C  0.27744831  0.58110896  0.26260760    -0.06700
C795        C  0.31486625  0.58447877  0.28500015     0.14200
C796        C  0.34061102  0.55004733  0.28822826    -0.20200
C797        C  0.33006568  0.51259085  0.26980504    -0.06700
C798        C  0.29620195  0.51118466  0.24285502     0.14200
C799        C  0.28338465  0.47208130  0.22176734    -0.23500
H800        H  0.24369443  0.54305261  0.22015994     0.15500
H801        H  0.36678435  0.55114317  0.30864797     0.15500
C802        C  0.32723864  0.62313169  0.30731641    -0.23400
H803        H  0.25563624  0.47621404  0.20255910     0.05700
H804        H  0.27582572  0.44843139  0.24443112     0.08900
H805        H  0.30867269  0.46147657  0.20187491     0.08900
H806        H  0.30691250  0.62823984  0.33379425     0.08900
H807        H  0.32567596  0.64961670  0.28665196     0.08900
H808        H  0.35933028  0.62138843  0.31897226     0.05700
C809        C  0.40723182  0.45758847  0.79239645    -0.20100
C810        C  0.40571907  0.47057438  0.83277839    -0.06700
C811        C  0.44313763  0.47818602  0.85361731     0.14200
C812        C  0.48111414  0.47297223  0.83344618    -0.20200
C813        C  0.48259386  0.46071072  0.79268989    -0.06700
C814        C  0.44483103  0.45385031  0.77171685     0.14200
C815        C  0.44242796  0.44415639  0.72714440    -0.23500
H816        H  0.37872486  0.45149876  0.77639859     0.15500
H817        H  0.50976537  0.47897280  0.84932924     0.15500
C818        C  0.44283585  0.49107365  0.89741289    -0.23400
H819        H  0.42839750  0.41337188  0.72256198     0.05700
H820        H  0.47257224  0.44489211  0.71172462     0.08900
H821        H  0.42270471  0.46715086  0.71212907     0.08900
H822        H  0.42664059  0.46758274  0.91559170     0.08900
H823        H  0.42674860  0.52079813  0.90088053     0.08900
H824        H  0.47459195  0.49483900  0.90957975     0.05700
C825        C  0.36034683  0.36426126  0.86768091    -0.20100
C826        C  0.34440542  0.39826779  0.84762217    -0.06700
C827        C  0.31761714  0.39209979  0.81424232     0.14200
C828        C  0.30574642  0.35226213  0.80338956    -0.20200
C829        C  0.31821078  0.31844817  0.82603814    -0.06700
C830        C  0.34752331  0.32426847  0.85732634     0.14200
C831        C  0.36516993  0.28867459  0.87995140    -0.23500
H832        H  0.38070277  0.36920879  0.89330935     0.15500
H833        H  0.28361474  0.34803718  0.77905795     0.15500
C834        C  0.29796466  0.42668844  0.79139999    -0.23400
H835        H  0.38958132  0.29871973  0.90152140     0.05700
H836        H  0.37912152  0.26661125  0.85822927     0.08900
H837        H  0.34072236  0.27314403  0.89759011     0.08900
H838        H  0.30771118  0.45738465  0.80223984     0.08900
H839        H  0.26389168  0.42472418  0.79438221     0.08900
H840        H  0.30613426  0.42407372  0.75888252     0.05700
C841        C  0.34333227  0.54814279  0.80838191    -0.20100
C842        C  0.34389668  0.54624779  0.85078061    -0.06700
C843        C  0.32791433  0.57997884  0.87299841     0.14200
C844        C  0.30359931  0.60900484  0.85319411    -0.20200
C845        C  0.29781070  0.60715677  0.81120302    -0.06700
C846        C  0.32131016  0.57882889  0.78831384     0.14200
C847        C  0.32081703  0.57880465  0.74286368    -0.23500
H848        H  0.35633295  0.52348344  0.79065084     0.15500
H849        H  0.28751592  0.63204660  0.87088385     0.15500
C850        C  0.33416943  0.58478979  0.91791943    -0.23400
H851        H  0.33949346  0.55353370  0.72976979     0.05700
H852        H  0.33376792  0.60815123  0.73200086     0.08900
H853        H  0.28883655  0.57533790  0.73179503     0.08900
H854        H  0.35482822  0.56096763  0.93017763     0.08900
H855        H  0.30397287  0.58322810  0.93367388     0.08900
H856        H  0.34867127  0.61500751  0.92448162     0.05700
C857        C  0.85259222  0.25867854  0.17450070    -0.20100
C858        C  0.81666900  0.23657244  0.16495480    -0.06700
C859        C  0.81498265  0.21385558  0.12831655     0.14200
C860        C  0.85131441  0.20761041  0.10605226    -0.20200
C861        C  0.88878161  0.22447114  0.11924746    -0.06700
C862        C  0.88878447  0.25304043  0.15177070     0.14200
C863        C  0.92785198  0.27478522  0.16463019    -0.23500
H864        H  0.85339385  0.27753921  0.20165812     0.15500
H865        H  0.85121459  0.18635660  0.08064259     0.15500
C866        C  0.77508287  0.19556779  0.11309903    -0.23400
H867        H  0.92243361  0.29596090  0.19055978     0.05700
H868        H  0.93990307  0.29304936  0.13911891     0.08900
H869        H  0.95151743  0.25234135  0.17388155     0.08900
H870        H  0.75106342  0.21962232  0.11204434     0.08900
H871        H  0.76460940  0.17053900  0.13307539     0.08900
H872        H  0.77861807  0.18307558  0.08197625     0.05700
C873        C  0.04079504  0.24893699  0.12650782    -0.20100
C874        C  0.03538453  0.21094309  0.10693899    -0.06700
C875        C  0.06871724  0.18346219  0.10617067     0.14200
C876        C  0.10314740  0.19109895  0.13096084    -0.20200
C877        C  0.10569245  0.22586035  0.15645872    -0.06700
C878        C  0.07541519  0.25682237  0.15145055     0.14200
C879        C  0.07729949  0.29699016  0.17419848    -0.23500
H880        H  0.01551884  0.27049048  0.12642476     0.15500
H881        H  0.12656465  0.16801058  0.13265932     0.15500
C882        C  0.06651115  0.14451577  0.08133358    -0.23400
H883        H  0.05174975  0.31761071  0.16545076     0.05700
H884        H  0.10677604  0.31295194  0.16739766     0.08900
H885        H  0.07461580  0.29173941  0.20717210     0.08900
H886        H  0.06158289  0.15216538  0.04908467     0.08900
H887        H  0.04076322  0.12474157  0.09164245     0.08900
H888        H  0.09543234  0.12662064  0.08356929     0.05700
C889        C  0.89016128  0.67853244  0.89258514    -0.20100
C890        C  0.88963141  0.71150051  0.92013921    -0.06700
C891        C  0.85213697  0.73194409  0.92771029     0.14200
C892        C  0.81703163  0.72154440  0.90469766    -0.20200
C893        C  0.81888160  0.69162397  0.87386917    -0.06700
C894        C  0.85536994  0.66860237  0.86902995     0.14200
C895        C  0.85804124  0.63412863  0.83851995    -0.23500
H896        H  0.91901053  0.66287618  0.88682336     0.15500
H897        H  0.78885414  0.73876108  0.90907014     0.15500
C898        C  0.84886587  0.76571501  0.95886989    -0.23400
H899        H  0.88817052  0.61819867  0.84016083     0.05700
H900        H  0.85467290  0.64603279  0.80744315     0.08900
H901        H  0.83329862  0.61132833  0.84438881     0.08900
H902        H  0.84040171  0.79473334  0.94392447     0.08900
H903        H  0.87810609  0.77067734  0.97573348     0.08900
H904        H  0.82465605  0.75769905  0.98119464     0.05700
C905        C  0.10903839  0.71474778  0.90942719    -0.20100
C906        C  0.10667020  0.68241038  0.88094047    -0.06700
C907        C  0.06981380  0.65859766  0.87927337     0.14200
C908        C  0.03535239  0.67083734  0.90225781    -0.20200
C909        C  0.03644936  0.70636228  0.92642127    -0.06700
C910        C  0.07444290  0.72688823  0.93214424     0.14200
C911        C  0.07800178  0.76252682  0.96126352    -0.23500
H912        H  0.13744390  0.73221644  0.91227244     0.15500
H913        H  0.00612843  0.65503908  0.89803088     0.15500
C914        C  0.06504805  0.62223757  0.85116712    -0.23400
H915        H  0.11007491  0.77457175  0.96293128     0.05700
H916        H  0.06885449  0.75252326  0.99195752     0.08900
H917        H  0.05766710  0.78786562  0.95181187     0.08900
H918        H  0.08811047  0.59858117  0.85887131     0.08900
H919        H  0.06919414  0.63188267  0.81935433     0.08900
H920        H  0.03399794  0.60791290  0.85360132     0.05700
C921        C  0.08087931  0.87337529  0.30014594    -0.20100
C922        C  0.05843168  0.87181792  0.26385352    -0.06700
C923        C  0.05375111  0.83411803  0.24345840     0.14200
C924        C  0.07680954  0.80043397  0.25620840    -0.20200
C925        C  0.10591996  0.80418559  0.28765119    -0.06700
C926        C  0.10503795  0.83998985  0.31226426     0.14200
C927        C  0.13032720  0.84392401  0.35037150    -0.23500
H928        H  0.08346222  0.90223633  0.31646312     0.15500
H929        H  0.07591006  0.77282257  0.23815706     0.15500
C930        C  0.02662063  0.83040132  0.20658190    -0.23400
H931        H  0.12227921  0.87205180  0.36774482     0.05700
H932        H  0.16368064  0.84586078  0.34329406     0.08900
H933        H  0.12428256  0.81724398  0.37003224     0.08900
H934        H  0.03750121  0.85120205  0.18253182     0.08900
H935        H  0.99443716  0.83834744  0.21482734     0.08900
H936        H  0.02660487  0.79893493  0.19388299     0.05700
C937        C  0.09138618  0.08348824  0.24522852    -0.20100
C938        C  0.11971623  0.07907009  0.27728273    -0.06700
C939        C  0.11379169  0.04597264  0.30421423     0.14200
C940        C  0.08431124  0.01553573  0.29466776    -0.20200
C941        C  0.06173123  0.01667579  0.25846507    -0.06700
C942        C  0.06290415  0.05259169  0.23532336     0.14200
C943        C  0.03676223  0.05763464  0.19808439    -0.23500
H944        H  0.09366009  0.10948016  0.22526607     0.15500
H945        H  0.08291095  0.98815969  0.31283115     0.15500
C946        C  0.13951829  0.04089724  0.34178321    -0.23400
H947        H  0.01816017  0.08593086  0.20111502     0.05700
H948        H  0.01511903  0.03164702  0.19338036     0.08900
H949        H  0.05688932  0.06016948  0.17106448     0.08900
H950        H  0.13833920  0.06927927  0.36050993     0.08900
H951        H  0.17189667  0.03379045  0.33362050     0.08900
H952        H  0.12802738  0.01529196  0.36057984     0.05700
C953        C  0.87764663  0.83894636  0.67697094    -0.20100
C954        C  0.85509568  0.87453783  0.68581270    -0.06700
C955        C  0.81692185  0.87134504  0.70625936     0.14200
C956        C  0.80258559  0.83296001  0.71787552    -0.20200
C957        C  0.82442433  0.79736132  0.70857856    -0.06700
C958        C  0.86243525  0.80007408  0.68794874     0.14200
C959        C  0.88665657  0.76223295  0.67769910    -0.23500
H960        H  0.90646112  0.84151053  0.66057630     0.15500
H961        H  0.77292845  0.83045269  0.73270993     0.15500
C962        C  0.79035346  0.90817608  0.71490452    -0.23400
H963        H  0.91595531  0.76981292  0.66200367     0.05700
H964        H  0.86816880  0.74184858  0.65754351     0.08900
H965        H  0.89427034  0.74568156  0.70583956     0.08900
H966        H  0.78148271  0.92310003  0.68626140     0.08900
H967        H  0.80739277  0.93023845  0.73433566     0.08900
H968        H  0.76148723  0.89979138  0.73096316     0.05700
C969        C  0.83801778  0.02030292  0.73246318    -0.20100
C970        C  0.85673792  0.02042306  0.69414966    -0.06700
C971        C  0.85635451  0.05709443  0.67188344     0.14200
C972        C  0.83220591  0.09004981  0.68538643    -0.20200
C973        C  0.80972015  0.08827612  0.72166452    -0.06700
C974        C  0.81481845  0.05386170  0.74671514     0.14200
C975        C  0.79385972  0.05113368  0.78719815    -0.23500
H976        H  0.83855325  0.99276052  0.74998925     0.15500
H977        H  0.83016743  0.11710035  0.66681951     0.15500
C978        C  0.88037631  0.06198773  0.63324198    -0.23400
H979        H  0.80007764  0.02152297  0.80213095     0.05700
H980        H  0.75995872  0.05404080  0.78349770     0.08900
H981        H  0.80556077  0.07596027  0.80737766     0.08900
H982        H  0.85879160  0.06662356  0.60764861     0.08900
H983        H  0.90010334  0.03516729  0.62638131     0.08900
H984        H  0.90104068  0.08909577  0.63600643     0.05700
C985        C  0.23876407  0.09451542  0.96561705    -0.20100
C986        C  0.27226597  0.06945549  0.95512925    -0.06700
C987        C  0.28705595  0.07005454  0.91494518     0.14200
C988        C  0.27044619  0.09808983  0.88722229    -0.20200
C989        C  0.24006447  0.12618920  0.89923854    -0.06700
C990        C  0.22285320  0.12315014  0.93835585     0.14200
C991        C  0.18844431  0.15101945  0.95178242    -0.23500
H992        H  0.22752955  0.09441394  0.99646564     0.15500
H993        H  0.28296342  0.09977097  0.85691664     0.15500
C994        C  0.32141670  0.04206738  0.90194989    -0.23400
H995        H  0.17799362  0.14408605  0.98294433     0.05700
H996        H  0.16164270  0.14723302  0.93111950     0.08900
H997        H  0.19899849  0.18337633  0.95140169     0.08900
H998        H  0.31193244  0.00977166  0.90670588     0.08900
H999        H  0.34965280  0.04870141  0.91990713     0.08900
H1000       H  0.32906053  0.04581676  0.86948117     0.05700
C1001       C  0.29057521  0.06934619  0.16614285    -0.20100
C1002       C  0.25107525  0.08688087  0.16661558    -0.06700
C1003       C  0.22604559  0.08319310  0.13175590     0.14200
C1004       C  0.24247721  0.06593516  0.09631999    -0.20200
C1005       C  0.28347438  0.05250557  0.09463707    -0.06700
C1006       C  0.30714513  0.05236266  0.13053901     0.14200
C1007       C  0.35028356  0.03556618  0.13192232    -0.23500
H1008       H  0.30954246  0.07080228  0.19313939     0.15500
H1009       H  0.22429566  0.06643958  0.06886380     0.15500
C1010       C  0.18252398  0.09870935  0.13120423    -0.23400
H1011       H  0.37234634  0.06047227  0.13996688     0.05700
H1012       H  0.35986908  0.02162560  0.10272237     0.08900
H1013       H  0.35196879  0.01141954  0.15519926     0.08900
H1014       H  0.18337794  0.13237885  0.13445980     0.08900
H1015       H  0.16453198  0.08504298  0.15627623     0.08900
H1016       H  0.16657639  0.09113037  0.10232272     0.05700
C1017       C  0.72467240  0.85274109  0.89084168    -0.20100
C1018       C  0.70042784  0.84534507  0.92510769    -0.06700
C1019       C  0.66804544  0.81623100  0.92183070     0.14200
C1020       C  0.66538798  0.79085269  0.88728411    -0.20200
C1021       C  0.69529228  0.79251220  0.85647244    -0.06700
C1022       C  0.72310213  0.82644382  0.85677342     0.14200
C1023       C  0.75300413  0.83422361  0.82283881    -0.23500
H1024       H  0.74919016  0.87537353  0.89311416     0.15500
H1025       H  0.64254323  0.76652774  0.88677697     0.15500
C1026       C  0.63965624  0.80785938  0.95691821    -0.23400
H1027       H  0.76906685  0.86415641  0.82657989     0.05700
H1028       H  0.73593503  0.83483365  0.79378930     0.08900
H1029       H  0.77718907  0.81036339  0.82195583     0.08900
H1030       H  0.62233072  0.83583901  0.96495860     0.08900
H1031       H  0.65754833  0.79766911  0.98352866     0.08900
H1032       H  0.61674472  0.78349860  0.94953733     0.05700
C1033       C  0.66642125  0.83677899  0.07943724    -0.20100
C1034       C  0.70735434  0.84842218  0.07181292    -0.06700
C1035       C  0.73677447  0.84551098  0.10313982     0.14200
C1036       C  0.72675108  0.82378184  0.13793549    -0.20200
C1037       C  0.68792711  0.80541752  0.14229513    -0.06700
C1038       C  0.65624206  0.81519896  0.11459764     0.14200
C1039       C  0.61227281  0.80150598  0.12105399    -0.23500
H1040       H  0.64362710  0.83945193  0.05569759     0.15500
H1041       H  0.75099441  0.81700313  0.15918040     0.15500
C1042       C  0.78026986  0.86125611  0.09882316    -0.23400
H1043       H  0.59137547  0.81401531  0.09766570     0.05700
H1044       H  0.60140823  0.81259979  0.15103180     0.08900
H1045       H  0.60967268  0.76770311  0.11953339     0.08900
H1046       H  0.78492517  0.87798452  0.07027158     0.08900
H1047       H  0.80219594  0.83528822  0.09961631     0.08900
H1048       H  0.78741324  0.88267400  0.12420536     0.05700
C1049       C  0.94972225  0.21290690  0.97494606    -0.20100
C1050       C  0.94225583  0.25412538  0.96688909    -0.06700
C1051       C  0.94031547  0.28229220  0.99967026     0.14200
C1052       C  0.94697635  0.26882069  0.03949909    -0.20200
C1053       C  0.95511539  0.22765099  0.04760899    -0.06700
C1054       C  0.95510284  0.19907509  0.01476267     0.14200
C1055       C  0.95947384  0.15359109  0.02024975    -0.23500
H1056       H  0.95105799  0.19127332  0.94993317     0.15500
H1057       H  0.94565134  0.29042660  0.06450784     0.15500
C1058       C  0.93152254  0.32675028  0.99246875    -0.23400
H1059       H  0.93246242  0.13767486  0.00647465     0.05700
H1060       H  0.96078542  0.14423689  0.05215922     0.08900
H1061       H  0.98792873  0.14286356  0.00487326     0.08900
H1062       H  0.90045936  0.32980315  0.97881754     0.08900
H1063       H  0.95498235  0.33980910  0.97180439     0.08900
H1064       H  0.93201853  0.34489843  0.02105444     0.05700
C1065       C  0.79668079  0.28000180  0.87787759    -0.20100
C1066       C  0.79218321  0.23820151  0.86856034    -0.06700
C1067       C  0.82309796  0.21086981  0.88218115     0.14200
C1068       C  0.85950949  0.22658777  0.90003067    -0.20200
C1069       C  0.86598428  0.26886451  0.90467952    -0.06700
C1070       C  0.83292837  0.29558192  0.89579578     0.14200
C1071       C  0.83569177  0.34109506  0.90321376    -0.23500
H1072       H  0.77257985  0.30110983  0.86935763     0.15500
H1073       H  0.88446199  0.20589800  0.90700777     0.15500
C1074       C  0.81811190  0.16510671  0.87817502    -0.23400
H1075       H  0.80993033  0.35085914  0.92314643     0.05700
H1076       H  0.83327794  0.35738004  0.87404017     0.08900
H1077       H  0.86491770  0.35041679  0.91817340     0.08900
H1078       H  0.81801988  0.15559727  0.84589553     0.08900
H1079       H  0.78885057  0.15554683  0.89276731     0.08900
H1080       H  0.84368542  0.14860356  0.89315212     0.05700
C1081       C  0.02384963  0.22278144  0.89589218    -0.20100
C1082       C  0.01821937  0.26323779  0.90912569    -0.06700
C1083       C  0.05303641  0.28881513  0.91430124     0.14200
C1084       C  0.09221126  0.27452688  0.90284665    -0.20200
C1085       C  0.09745421  0.23549243  0.88509882    -0.06700
C1086       C  0.06285935  0.20860883  0.88358684     0.14200
C1087       C  0.06604565  0.16565107  0.86725776    -0.23500
H1088       H  0.99696803  0.20336268  0.89144433     0.15500
H1089       H  0.11836735  0.29521034  0.90519266     0.15500
C1090       C  0.04855056  0.33181224  0.93056495    -0.23400
H1091       H  0.03687051  0.14814418  0.87119516     0.05700
H1092       H  0.09102073  0.14904058  0.88302329     0.08900
H1093       H  0.07239101  0.16697857  0.83450513     0.08900
H1094       H  0.03400848  0.33094796  0.96091636     0.08900
H1095       H  0.02906892  0.35015841  0.91008210     0.08900
H1096       H  0.07888290  0.34753651  0.93354100     0.05700
C1097       C  0.95517316  0.69087993  0.05929885    -0.20100
C1098       C  0.94334197  0.64964861  0.06036173    -0.06700
C1099       C  0.93938266  0.62771595  0.02328706     0.14200
C1100       C  0.94657861  0.64772783  0.98636894    -0.20200
C1101       C  0.95790881  0.68913482  0.98548743    -0.06700
C1102       C  0.96178226  0.71107615  0.02261367     0.14200
C1103       C  0.97187884  0.75613004  0.02510052    -0.23500
H1104       H  0.95921830  0.70789175  0.08712846     0.15500
H1105       H  0.94313332  0.63116295  0.95800597     0.15500
C1106       C  0.92808417  0.58297693  0.02269738    -0.23400
H1107       H  0.00141169  0.76064208  0.04163373     0.05700
H1108       H  0.94702293  0.77226907  0.04185406     0.08900
H1109       H  0.97467299  0.77091191  0.99540607     0.08900
H1110       H  0.89724340  0.57853622  0.03654953     0.08900
H1111       H  0.95135504  0.56537001  0.03979053     0.08900
H1112       H  0.92688575  0.57036262  0.99139723     0.05700
C1113       C  0.82648874  0.61745287  0.10718916    -0.20100
C1114       C  0.86351139  0.63644665  0.11934845    -0.06700
C1115       C  0.86146258  0.66989457  0.14679447     0.14200
C1116       C  0.82297648  0.68343451  0.16099268    -0.20200
C1117       C  0.78577498  0.66344412  0.15045868    -0.06700
C1118       C  0.78780610  0.63014490  0.12240169     0.14200
C1119       C  0.74999317  0.60626559  0.10963261    -0.23500
H1120       H  0.82814758  0.59076453  0.08750107     0.15500
H1121       H  0.82235089  0.70907386  0.18203534     0.15500
C1122       C  0.89986039  0.68967588  0.16388654    -0.23400
H1123       H  0.75768561  0.58075066  0.08853423     0.05700
H1124       H  0.72813766  0.62661815  0.09378981     0.08900
H1125       H  0.73491759  0.59273348  0.13652347     0.08900
H1126       H  0.91710840  0.70470092  0.13942148     0.08900
H1127       H  0.91948051  0.66639621  0.17856227     0.08900
H1128       H  0.89265376  0.71356049  0.18693146     0.05700
C1129       C  0.01511041  0.66067751  0.14228517    -0.00100
C1130       C  0.01186927  0.62201922  0.12391709    -0.06700
C1131       C  0.04629544  0.59569199  0.12518273     0.14200
C1132       C  0.08127240  0.60717973  0.14796880    -0.20200
C1133       C  0.08301379  0.64455050  0.16963598    -0.06700
C1134       C  0.04982971  0.67226616  0.16513927     0.14200
C1135       C  0.04854222  0.71269086  0.18707765    -0.23500
H1136       H  0.98848670  0.68037116  0.14261645     0.15500
H1137       H  0.10662665  0.58582915  0.15020000     0.15500
C1138       C  0.04634377  0.55463156  0.10406094    -0.23400
H1139       H  0.01941200  0.72926609  0.18111842     0.05700
H1140       H  0.07443557  0.73228704  0.17677045     0.08900
H1141       H  0.05038790  0.70764207  0.22014699     0.08900
H1142       H  0.07312242  0.55288170  0.08321316     0.08900
H1143       H  0.01804339  0.54925539  0.08584977     0.08900
H1144       H  0.04893212  0.52998685  0.12673342     0.05700
C1145       C  0.96597727  0.93024191  0.76820852    -0.20100
C1146       C  0.00067924  0.94262160  0.74572443    -0.06700
C1147       C  0.99479542  0.95664611  0.70599474     0.14200
C1148       C  0.95465972  0.95825643  0.69001914    -0.20200
C1149       C  0.91994584  0.94609422  0.71251261    -0.06700
C1150       C  0.92585225  0.93124560  0.75202898     0.14200
C1151       C  0.89049076  0.91620844  0.77737996    -0.23500
H1152       H  0.97053919  0.91960044  0.79877979     0.15500
H1153       H  0.95013514  0.96874442  0.65938775     0.15500
C1154       C  0.03045456  0.96959316  0.68006760    -0.23400
H1155       H  0.90095022  0.90680158  0.80785345     0.05700
H1156       H  0.87593805  0.88910889  0.76294023     0.08900
H1157       H  0.86739005  0.94059463  0.78168650     0.08900
H1158       H  0.05438291  0.94547990  0.67946858     0.08900
H1159       H  0.04345858  0.99869109  0.69180650     0.08900
H1160       H  0.02066587  0.97507459  0.64841822     0.05700
C1161       C  0.09985534  0.87725127  0.73359002    -0.20100
C1162       C  0.06981355  0.87096593  0.76339952    -0.06700
C1163       C  0.06588977  0.83195277  0.78063376     0.14200
C1164       C  0.09598643  0.80229659  0.77245150    -0.20200
C1165       C  0.13065066  0.81110428  0.74818104    -0.06700
C1166       C  0.13060758  0.84802141  0.72582904     0.14200
C1167       C  0.16402325  0.85867112  0.69598735    -0.23500
H1168       H  0.10240306  0.90706402  0.71986763     0.15500
H1169       H  0.09413689  0.77337008  0.78806010     0.15500
C1170       C  0.03114340  0.82240569  0.80932262    -0.23400
H1171       H  0.15728369  0.88760038  0.68000808     0.05700
H1172       H  0.16656740  0.83401749  0.67276469     0.08900
H1173       H  0.19393759  0.86304067  0.71182605     0.08900
H1174       H  0.00115187  0.82746709  0.79398570     0.08900
H1175       H  0.03298792  0.84232666  0.83663201     0.08900
H1176       H  0.03205933  0.79009313  0.81931938     0.05700
C1177       C  0.10199224  0.01037110  0.74437314    -0.20100
C1178       C  0.06878127  0.01246494  0.77157070    -0.06700
C1179       C  0.05779208  0.05055776  0.78857536     0.14200
C1180       C  0.08136887  0.08523750  0.77929920    -0.20200
C1181       C  0.11624701  0.08285463  0.75422207    -0.06700
C1182       C  0.12564764  0.04510882  0.73509843     0.14200
C1183       C  0.16207728  0.04041884  0.70716664    -0.23500
H1184       H  0.11091435  0.98085130  0.73208551     0.15500
H1185       H  0.07335442  0.11415087  0.79305053     0.15500
C1186       C  0.02259035  0.05528126  0.81793980    -0.23400
H1187       H  0.16538670  0.00839966  0.69604199     0.05700
H1188       H  0.19094861  0.04908250  0.72327631     0.08900
H1189       H  0.15802196  0.06017129  0.68040204     0.08900
H1190       H  0.00543193  0.02627153  0.82266370     0.08900
H1191       H  0.00043959  0.07810137  0.80627909     0.08900
H1192       H  0.03466259  0.06621949  0.84759643     0.05700
C1193       C  0.91954331  0.94229162  0.26744316    -0.20100
C1194       C  0.91437638  0.94497089  0.30930698    -0.06700
C1195       C  0.94954363  0.94635901  0.33468912     0.14200
C1196       C  0.98921323  0.94618146  0.31753408    -0.20200
C1197       C  0.99440206  0.94467577  0.27561845    -0.06700
C1198       C  0.95914759  0.94224337  0.25022176     0.14200
C1199       C  0.96320529  0.93970568  0.20490865    -0.23500
H1200       H  0.89251312  0.94067903  0.24824052     0.15500
H1201       H  0.01628431  0.94736498  0.33673666     0.15500
C1202       C  0.94504601  0.94794298  0.37994868    -0.23400
H1203       H  0.93261227  0.93800759  0.18981424     0.05700
H1204       H  0.98067514  0.91196371  0.19605428     0.08900
H1205       H  0.97945575  0.96717980  0.19356808     0.08900
H1206       H  0.92756659  0.92073883  0.39032985     0.08900
H1207       H  0.92838082  0.97606218  0.38921777     0.08900
H1208       H  0.97550256  0.94820595  0.39535404     0.05700
C1209       C  0.82552290  0.80474389  0.33488935    -0.20100
C1210       C  0.80367345  0.80390490  0.29807476    -0.06700
C1211       C  0.80798189  0.83766027  0.27175793     0.14200
C1212       C  0.82973585  0.87272684  0.28500267    -0.20200
C1213       C  0.84704839  0.87502465  0.32382092    -0.06700
C1214       C  0.84689279  0.83988724  0.34810287     0.14200
C1215       C  0.86788860  0.84008772  0.38875537    -0.23500
H1216       H  0.82403776  0.77849136  0.35457110     0.15500
H1217       H  0.82960255  0.89992789  0.26655872     0.15500
C1218       C  0.78762343  0.83836945  0.23095084    -0.23400
H1219       H  0.86547755  0.80985020  0.40358725     0.05700
H1220       H  0.85369507  0.86317856  0.40917165     0.08900
H1221       H  0.90110774  0.84746968  0.38487928     0.08900
H1222       H  0.75370612  0.83506936  0.23436380     0.08900
H1223       H  0.79997952  0.81306066  0.21194906     0.08900
H1224       H  0.79369754  0.86746787  0.21490367     0.05700
C1225       C  0.85108812  0.02784179  0.28314465    -0.20100
C1226       C  0.86018146  0.02375389  0.32446647    -0.06700
C1227       C  0.85753785  0.05863520  0.34990680     0.14200
C1228       C  0.83606573  0.09297738  0.33627956    -0.20200
C1229       C  0.82035056  0.09399915  0.29685127    -0.06700
C1230       C  0.83245191  0.06361407  0.26877644     0.14200
C1231       C  0.82382545  0.06824805  0.22431313    -0.23500
H1232       H  0.85440131  0.00183268  0.26291592     0.15500
H1233       H  0.82850102  0.11742906  0.35736798     0.15500
C1234       C  0.87539630  0.05866970  0.39197336    -0.23400
H1235       H  0.83277058  0.04050240  0.20678035     0.05700
H1236       H  0.84183883  0.09462959  0.21276628     0.08900
H1237       H  0.79080552  0.07437351  0.21879493     0.08900
H1238       H  0.90900085  0.05252313  0.39017528     0.08900
H1239       H  0.86058117  0.03500244  0.41086554     0.08900
H1240       H  0.87121722  0.08874043  0.40736910     0.05700
C1241       C  0.67341512  0.97977176  0.01318161    -0.20100
C1242       C  0.71152512  0.99801138  0.02293693    -0.06700
C1243       C  0.74750156  0.97366418  0.02237793     0.14200
C1244       C  0.74461235  0.93232248  0.01132365    -0.20200
C1245       C  0.70653863  0.91338575  0.00296726    -0.06700
C1246       C  0.67044590  0.93748619  0.00376916     0.14200
C1247       C  0.62916793  0.91892654  0.99404957    -0.23500
H1248       H  0.64611157  0.99872681  0.01278407     0.15500
H1249       H  0.77228857  0.91393641  0.01030016     0.15500
C1250       C  0.78918307  0.99096596  0.03390025    -0.23400
H1251       H  0.60410152  0.94186681  0.99638341     0.05700
H1252       H  0.62216526  0.89395501  0.01538516     0.08900
H1253       H  0.62952226  0.90674242  0.96262535     0.08900
H1254       H  0.78847864  0.00240699  0.06559112     0.08900
H1255       H  0.79793583  0.01626842  0.01360529     0.08900
H1256       H  0.81376147  0.96749095  0.03181259     0.05700
C1257       C  0.73604391  0.08432459  0.88804403    -0.20100
C1258       C  0.69760950  0.10312145  0.88303823    -0.06700
C1259       C  0.66682178  0.09749016  0.91284166     0.14200
C1260       C  0.67732371  0.07860288  0.94936611    -0.20200
C1261       C  0.71794445  0.06623989  0.95683946    -0.06700
C1262       C  0.74683531  0.06652300  0.92494373     0.14200
C1263       C  0.78969356  0.04997097  0.93050199    -0.23500
H1264       H  0.75928775  0.08754961  0.86480223     0.15500
H1265       H  0.65493195  0.07752374  0.97366016     0.15500
C1266       C  0.62333106  0.11237817  0.90681540    -0.23400
H1267       H  0.80812748  0.05207523  0.90230019     0.05700
H1268       H  0.78775365  0.01725536  0.93900499     0.08900
H1269       H  0.80627113  0.06745618  0.95447611     0.08900
H1270       H  0.61056360  0.09909642  0.87837884     0.08900
H1271       H  0.62257014  0.14622674  0.90536434     0.08900
H1272       H  0.60287227  0.10304165  0.93204702     0.05700
C1273       C  0.71473030  0.03523680  0.13468638    -0.20100
C1274       C  0.70228187  0.05979411  0.10233386    -0.06700
C1275       C  0.67643236  0.09370946  0.11059910     0.14200
C1276       C  0.67059398  0.10675218  0.15062991    -0.20200
C1277       C  0.68775093  0.08542647  0.18296173    -0.06700
C1278       C  0.70607322  0.04688501  0.17511713     0.14200
C1279       C  0.71722412  0.01868509  0.20907084    -0.23500
H1280       H  0.73351602  0.00855360  0.12854634     0.15500
H1281       H  0.65513855  0.13557977  0.15645949     0.15500
C1282       C  0.65802341  0.11929166  0.07760731    -0.23400
H1283       H  0.73278262  0.99063266  0.19768766     0.05700
H1284       H  0.68862631  0.00926027  0.22497289     0.08900
H1285       H  0.73778758  0.03398821  0.23129212     0.08900
H1286       H  0.66329263  0.10607836  0.04707113     0.08900
H1287       H  0.67152419  0.15059470  0.07882417     0.08900
H1288       H  0.62414443  0.12135221  0.08204480     0.05700
C1289       C  0.28512195  0.91834217  0.01759984    -0.20100
C1290       C  0.24388566  0.90821615  0.02574182    -0.06700
C1291       C  0.21495408  0.94030272  0.03000392     0.14200
C1292       C  0.22805446  0.98146689  0.02739579    -0.20200
C1293       C  0.26937755  0.99152212  0.01974976    -0.06700
C1294       C  0.29823042  0.95937842  0.01460467     0.14200
C1295       C  0.34300158  0.96825329  0.00590514    -0.23500
H1296       H  0.30718983  0.89404607  0.01327381     0.15500
H1297       H  0.20594559  0.00591359  0.03114156     0.15500
C1298       C  0.16990422  0.93100878  0.03594240    -0.23400
H1299       H  0.36122102  0.93971024  0.00276897     0.05700
H1300       H  0.35673839  0.98668481  0.03089826     0.08900
H1301       H  0.34585328  0.98520240  0.97717365     0.08900
H1302       H  0.16540682  0.91464982  0.06476457     0.08900
H1303       H  0.15834242  0.91168413  0.01048728     0.08900
H1304       H  0.15117512  0.95934964  0.03719529     0.05700
C1305       C  0.21158699  0.86606127  0.91861403    -0.20100
C1306       C  0.24005430  0.85310452  0.94772041    -0.06700
C1307       C  0.27478097  0.83025575  0.93500469     0.14200
C1308       C  0.27693122  0.81595465  0.89503654    -0.20200
C1309       C  0.24482905  0.82326141  0.86790375    -0.06700
C1310       C  0.21299812  0.85047666  0.87886084     0.14200
C1311       C  0.17838904  0.85965653  0.84998895    -0.23500
H1312       H  0.18477378  0.88318787  0.92844133     0.15500
H1313       H  0.30152889  0.79528736  0.88632131     0.15500
C1314       C  0.30720828  0.81576136  0.96401743    -0.23400
H1315       H  0.15601265  0.88144091  0.86350182     0.05700
H1316       H  0.16154555  0.83102661  0.84190351     0.08900
H1317       H  0.19106484  0.87347526  0.82209484     0.08900
H1318       H  0.30730595  0.78178678  0.96452550     0.08900
H1319       H  0.30188080  0.82697544  0.99515566     0.08900
H1320       H  0.33799314  0.82685218  0.95415086     0.05700
C1321       C  0.18121808  0.84244050  0.11952856    -0.20100
C1322       C  0.21777845  0.84399604  0.09686458    -0.06700
C1323       C  0.25432938  0.82846987  0.11428398     0.14200
C1324       C  0.25231856  0.80748938  0.15132116    -0.20200
C1325       C  0.21440253  0.80102777  0.17081456    -0.06700
C1326       C  0.17900116  0.82087202  0.15592515     0.14200
C1327       C  0.13857018  0.81881962  0.17803431    -0.23500
H1328       H  0.15303980  0.85404773  0.10635235     0.15500
H1329       H  0.27990575  0.79379991  0.16366540     0.15500
C1330       C  0.29478924  0.83101007  0.09223401    -0.23400
H1331       H  0.11406962  0.83607246  0.16227269     0.05700
H1332       H  0.14253464  0.83223636  0.20876610     0.08900
H1333       H  0.12802834  0.78661492  0.18027906     0.08900
H1334       H  0.30244982  0.86352012  0.08627189     0.08900
H1335       H  0.29266727  0.81375666  0.06328431     0.08900
H1336       H  0.32036980  0.81778459  0.11011766     0.05700
loop_ 
_geom_bond_atom_site_label_1 
_geom_bond_atom_site_label_2 
_geom_bond_distance 
_geom_bond_site_symmetry_2 
_ccdc_geom_bond_type 
N1            C5   1.360   1_554  A
N1            C2   1.368       .  A
N1         C1290   1.450       .  S
C2            C3   1.383       .  A
C2         C1322   1.483       .  S
C3            C4   1.361   1_554  A
C3            H6   1.083       .  S
C4            C5   1.378       .  A
C4            H7   1.083       .  S
C5         C1306   1.472       .  S
N8           C12   1.359   1_554  A
N8            C9   1.363       .  A
N8         C1242   1.443   1_545  S
C9           C10   1.382       .  A
C9         C1274   1.487       .  S
C10          C11   1.366       .  A
C10          H13   1.078       .  S
C11          C12   1.379   1_554  A
C11          H14   1.083       .  S
C12        C1261   1.479       .  S
N15          C19   1.356       .  A
N15          C16   1.357       .  A
N15        C1194   1.440       .  S
C16          C17   1.381       .  A
C16        C1213   1.479       .  S
C17          C18   1.369       .  A
C17          H20   1.083       .  S
C18          C19   1.383       .  A
C18          H21   1.082       .  S
C19        C1226   1.482   1_565  S
N22          C26   1.359       .  A
N22          C23   1.357       .  A
N22        C1146   1.447       .  S
C23          C24   1.380       .  A
C23        C1178   1.475   1_565  S
C24          C25   1.366       .  A
C24          H27   1.083       .  S
C25          C26   1.383       .  A
C25          H28   1.082       .  S
C26        C1162   1.481       .  S
N29          C33   1.361       .  A
N29          C30   1.364       .  A
N29        C1098   1.449       .  S
C30          C31   1.381       .  A
C30        C1114   1.492       .  S
C31          C32   1.371       .  A
C31          H34   1.082       .  S
C32          C33   1.382       .  A
C32          H35   1.082       .  S
C33        C1130   1.488   1_655  S
N36          C40   1.359       .  A
N36          C37   1.366       .  A
N36        C1050   1.448       .  S
C37          C38   1.385       .  A
C37        C1069   1.491       .  S
C38          C39   1.368       .  A
C38          H41   1.082       .  S
C39          C40   1.379       .  A
C39          H42   1.082       .  S
C40        C1082   1.483   1_655  S
N43          C47   1.363   1_556  A
N43          C44   1.368       .  A
N43        C1245   1.449   1_556  S
C44          C45   1.383       .  A
C44        C1018   1.483       .  S
C45          C46   1.357   1_556  A
C45          H48   1.082       .  S
C46          C47   1.376       .  A
C46          H49   1.083       .  S
C47        C1034   1.476       .  S
N50          C54   1.362   1_554  A
N50          C51   1.357       .  A
N50        C1293   1.449   1_545  S
C51          C52   1.380       .  A
C51        C1005   1.482       .  S
C52          C53   1.370       .  A
C52          H55   1.083       .  S
C53          C54   1.385   1_554  A
C53          H56   1.083   1_554  S
C54         C986   1.488       .  S
N57          C61   1.363       .  A
N57          C58   1.361       .  A
N57        C1149   1.446       .  S
C58          C59   1.380       .  A
C58         C954   1.476       .  S
C59          C60   1.367       .  A
C59          H62   1.083       .  S
C60          C61   1.383       .  A
C60          H63   1.082       .  S
C61         C970   1.493   1_565  S
N64          C68   1.353       .  A
N64          C65   1.357       .  A
N64        C1197   1.440   1_455  S
C65          C66   1.383       .  A
C65         C941   1.481   1_565  S
C66          C67   1.369       .  A
C66          H69   1.083       .  S
C67          C68   1.381       .  A
C67          H70   1.081       .  S
C68         C922   1.478       .  S
N71          C75   1.360       .  A
N71          C72   1.356       .  A
N71        C1101   1.445       .  S
C72          C73   1.381       .  A
C72         C890   1.480       .  S
C73          C74   1.371       .  A
C73          H76   1.083       .  S
C74          C75   1.384       .  A
C74          H77   1.082   1_655  S
C75         C909   1.484   1_655  S
N78          C82   1.357       .  A
N78          C79   1.364       .  A
N78        C1053   1.449       .  S
C79          C80   1.385       .  A
C79         C874   1.485   1_655  S
C80          C81   1.364       .  A
C80          H83   1.083       .  S
C81          C82   1.378       .  A
C81          H84   1.083       .  S
C82         C861   1.476       .  S
N85          C89   1.364       .  A
N85          C86   1.355       .  A
N85         C810   1.446       .  S
C86          C87   1.376       .  A
C86         C826   1.475       .  S
C87          C88   1.369       .  A
C87          H90   1.083       .  S
C88          C89   1.389       .  A
C88          H91   1.082       .  S
C89         C842   1.496       .  S
N92          C96   1.359       .  A
N92          C93   1.359       .  A
N92         C765   1.444       .  S
C93          C94   1.380       .  A
C93         C797   1.483       .  S
C94          C95   1.367       .  A
C94          H97   1.082       .  S
C95          C96   1.384       .  A
C95          H98   1.083       .  S
C96         C778   1.484       .  S
N99         C103   1.370       .  A
N99         C100   1.363       .  A
N99         C717   1.445       .  S
C100        C101   1.374       .  A
C100        C730   1.485       .  S
C101        C102   1.365       .  A
C101        H104   1.082       .  S
C102        C103   1.391       .  A
C102        H105   1.080       .  S
C103        C746   1.507       .  S
O106       Ni112   1.939       .  S
O106        C127   1.275       .  A
O107       Ni130   1.900       .  S
O107        C116   1.266       .  A
O108       Ni112   1.925       .  S
O108       Ni130   1.908       .  S
O108       Ni124   1.937       .  S
O108        H131   0.966       .  S
C109       C1085   1.500       .  S
C109        O126   1.279       .  A
C109        O118   1.280       .  A
O110       Ni129   1.935       .  S
O110        C116   1.273       .  A
O111       Ni129   1.917       .  S
O111        C113   1.271       .  A
Ni112       O115   1.958       .  S
Ni112       O117   1.911       .  S
C113        C989   1.486       .  S
C113        O123   1.272       .  A
O114       Ni130   1.902       .  S
O114        C120   1.269       .  A
O115        C120   1.275       .  A
C116        C829   1.482       .  S
O117        C119   1.274       .  A
O118       Ni129   1.933       .  S
C119        C749   1.487       .  S
C119        O125   1.278       .  A
C120        C698   1.495       .  S
H121        O122   0.966       .  S
O122       Ni130   1.904       .  S
O122       Ni124   1.889       .  S
O122       Ni129   1.911       .  S
O123       Ni124   1.937       .  S
Ni124       O128   1.891       .  S
Ni124       O126   1.927       .  S
O125       Ni130   1.951       .  S
C127       C1181   1.483       .  S
C127        O128   1.267       .  A
N132        C136   1.360       .  A
N132        C133   1.365       .  A
N132        C650   1.446       .  S
C133        C134   1.380       .  A
C133        C666   1.483       .  S
C134        C135   1.367       .  A
C134        H137   1.083       .  S
C135        C136   1.382       .  A
C135        H138   1.082       .  S
C136        C682   1.488       .  S
N139        C143   1.359       .  A
N139        C140   1.360       .  A
N139        C618   1.443       .  S
C140        C141   1.382       .  A
C140        C634   1.490       .  S
C141        C142   1.373       .  A
C141        H144   1.082       .  S
C142        C143   1.382       .  A
C142        H145   1.082       .  S
C143        C701   1.488       .  S
O146       Ni152   1.924       .  S
O146        C167   1.273       .  A
O147       Ni170   1.894       .  S
O147        C156   1.266       .  A
O148       Ni152   1.913       .  S
O148       Ni170   1.899       .  S
O148       Ni164   1.912       .  S
O148        H171   0.966       .  S
C149       C1258   1.481       .  S
C149        O166   1.274       .  A
C149        O158   1.276       .  A
O150       Ni169   1.957       .  S
O150        C156   1.277       .  A
O151       Ni169   1.922       .  S
O151        C153   1.276       .  A
Ni152       O155   1.913       .  S
Ni152       O157   1.934       .  S
C153       C1066   1.497       .  S
C153        O163   1.277       .  A
O154       Ni170   1.933       .  S
O154        C160   1.278       .  A
O155        C160   1.275       .  A
C156        C605   1.497       .  S
O157        C159   1.272       .  A
O158       Ni169   1.932       .  S
C159        C637   1.487       .  S
C159        O165   1.268       .  A
C160        C685   1.475       .  S
H161        O162   0.966       .  S
O162       Ni170   1.916       .  S
O162       Ni164   1.918       .  S
O162       Ni169   1.916       .  S
O163       Ni164   1.943       .  S
Ni164       O168   1.926       .  S
Ni164       O166   1.913       .  S
O165       Ni170   1.917       .  S
C167        C973   1.492       .  S
C167        O168   1.272       .  A
N172        C176   1.358       .  A
N172        C173   1.361       .  A
N172        C714   1.445       .  S
C173        C174   1.383       .  A
C173        C570   1.486       .  S
C174        C175   1.369       .  A
C174        H177   1.083       .  S
C175        C176   1.379       .  A
C175        H178   1.082       .  S
C176        C589   1.478       .  S
O179       Ni185   1.941       .  S
O179        C200   1.275       .  A
O180       Ni203   1.905       .  S
O180        C189   1.268       .  A
O181       Ni185   1.920       .  S
O181       Ni203   1.896       .  S
O181       Ni197   1.893       .  S
O181        H204   0.966       .  S
C182        C586   1.481       .  S
C182        O199   1.264       .  A
C182        O191   1.273       .  A
O183       Ni202   1.939       .  S
O183        C189   1.273       .  A
O184       Ni202   1.910       .  S
O184        C186   1.274       .  A
Ni185       O188   1.942       .  S
Ni185       O190   1.914       .  S
C186        C845   1.487       .  S
C186        O196   1.281       .  A
O187       Ni203   1.901       .  S
O187        C193   1.274       .  A
O188        C193   1.277       .  A
C189        C906   1.500       .  S
O190        C192   1.268       .  A
O191       Ni202   1.952       .  S
C192       C1165   1.498       .  S
C192        O198   1.271       .  A
C193       C1309   1.468       .  S
H194        O195   0.966       .  S
O195       Ni203   1.929       .  S
O195       Ni197   1.913       .  S
O195       Ni202   1.925       .  S
O196       Ni197   1.956       .  S
Ni197       O201   1.908       .  S
Ni197       O199   1.893       .  S
O198       Ni203   1.923       .  S
C200        C554   1.492       .  S
C200        O201   1.267       .  A
N205        C209   1.363       .  A
N205        C206   1.357       .  A
N205        C813   1.446       .  S
C206        C207   1.381       .  A
C206        C538   1.479       .  S
C207        C208   1.368       .  A
C207        H210   1.082       .  S
C208        C209   1.383       .  A
C208        H211   1.083       .  S
C209        C602   1.487       .  S
N212        C216   1.361       .  A
N212        C213   1.362       .  A
N212        C506   1.447       .  S
C213        C214   1.380       .  A
C213        C522   1.481       .  S
C214        C215   1.363       .  A
C214        H217   1.083       .  S
C215        C216   1.381       .  A
C215        H218   1.083       .  S
C216        C557   1.479       .  S
N219        C223   1.363       .  A
N219        C220   1.365       .  A
N219        C653   1.450       .  S
C220        C221   1.384       .  A
C220        C474   1.488       .  S
C221        C222   1.367       .  A
C221        H224   1.083       .  S
C222        C223   1.381       .  A
C222        H225   1.082       .  S
C223        C490   1.491       .  S
O226       Ni232   1.922       .  S
O226        C247   1.268       .  A
O227       Ni250   1.898       .  S
O227        C236   1.269       .  A
O228       Ni232   1.913       .  S
O228       Ni250   1.891       .  S
O228       Ni244   1.913       .  S
O228        H251   0.966       .  S
C229        C893   1.483       .  S
C229        O246   1.269       .  A
C229        O238   1.276       .  A
O230       Ni249   1.941       .  S
O230        C236   1.275       .  A
O231       Ni249   1.916       .  S
O231        C233   1.274       .  A
Ni232       O235   1.927       .  S
Ni232       O237   1.909       .  S
C233       C1021   1.507       .  S
C233        O243   1.276       .  A
O234       Ni250   1.924       .  S
O234        C240   1.279       .  A
O235        C240   1.279       .  A
C236        C541   1.488       .  S
O237        C239   1.268       .  A
O238       Ni249   1.952       .  S
C239        C477   1.509       .  S
C239        O245   1.276       .  A
C240        C525   1.489       .  S
H241        O242   0.966       .  S
O242       Ni250   1.931       .  S
O242       Ni244   1.909       .  S
O242       Ni249   1.925       .  S
O243       Ni244   1.953       .  S
Ni244       O248   1.903       .  S
Ni244       O246   1.904       .  S
O245       Ni250   1.940       .  S
C247        C957   1.471       .  S
C247        O248   1.264       .  A
N252        C256   1.358       .  A
N252        C253   1.360       .  A
N252        C621   1.444       .  S
C253        C254   1.384       .  A
C253        C458   1.485       .  S
C254        C255   1.369       .  A
C254        H257   1.082       .  S
C255        C256   1.381       .  A
C255        H258   1.082       .  S
C256        C445   1.483       .  S
O259       Ni265   1.931       .  S
O259        C280   1.274       .  A
O260       Ni283   1.893       .  S
O260        C269   1.265       .  A
O261       Ni265   1.923       .  S
O261       Ni283   1.908       .  S
O261       Ni277   1.918       .  S
O261        H284   0.966       .  S
C262        C426   1.474       .  S
C262        O279   1.273       .  A
C262        O271   1.277       .  A
O263       Ni282   1.947       .  S
O263        C269   1.275       .  A
O264       Ni282   1.920       .  S
O264        C266   1.273       .  A
Ni265       O268   1.919       .  S
Ni265       O270   1.931       .  S
C266        C669   1.504       .  S
C266        O276   1.272       .  A
O267       Ni283   1.923       .  S
O267        C273   1.272       .  A
O268        C273   1.275       .  A
C269        C858   1.480       .  S
O270        C272   1.271       .  A
O271       Ni282   1.932       .  S
C272       C1277   1.487       .  S
C272        O278   1.272       .  A
C273       C1229   1.473       .  S
H274        O275   0.967       .  S
O275       Ni283   1.906       .  S
O275       Ni277   1.907       .  S
O275       Ni282   1.920       .  S
O276       Ni277   1.936       .  S
Ni277       O281   1.911       .  S
Ni277       O279   1.914       .  S
O278       Ni283   1.921       .  S
C280        C442   1.491       .  S
C280        O281   1.267       .  A
N285        C289   1.359       .  A
N285        C286   1.361       .  A
N285        C509   1.443       .  S
C286        C287   1.382       .  A
C286        C410   1.476       .  S
C287        C288   1.366       .  A
C287        H290   1.082       .  S
C288        C289   1.380       .  A
C288        H291   1.082       .  S
C289        C394   1.478       .  S
N292        C296   1.356       .  A
N292        C293   1.355       .  A
N292        C762   1.442       .  S
C293        C294   1.383       .  A
C293        C429   1.482       .  S
C294        C295   1.372       .  A
C294        H297   1.082       .  S
C295        C296   1.383       .  A
C295        H298   1.082       .  S
C296        C378   1.482       .  S
O299       Ni305   1.928       .  S
O299        C320   1.272       .  A
O300       Ni323   1.911       .  S
O300        C309   1.267       .  A
O301       Ni305   1.924       .  S
O301       Ni323   1.921       .  S
O301       Ni317   1.923       .  S
O301        H324   0.966       .  S
C302       C1037   1.478       .  S
C302        O319   1.273       .  A
C302        O311   1.273       .  A
O303       Ni322   1.934       .  S
O303        C309   1.273       .  A
O304       Ni322   1.925       .  S
O304        C306   1.272       .  A
Ni305       O308   1.924       .  S
Ni305       O310   1.915       .  S
C306       C1117   1.509       .  S
C306        O316   1.274       .  A
O307       Ni323   1.915       .  S
O307        C313   1.271       .  A
O308        C313   1.272       .  A
C309        C381   1.492       .  S
O310        C312   1.271       .  A
O311       Ni322   1.920       .  S
C312        C413   1.482       .  S
C312        O318   1.275       .  A
C313        C493   1.480       .  S
H314        O315   0.966       .  S
O315       Ni323   1.908       .  S
O315       Ni317   1.911       .  S
O315       Ni322   1.923       .  S
O316       Ni317   1.930       .  S
Ni317       O321   1.913       .  S
Ni317       O319   1.916       .  S
O318       Ni323   1.934       .  S
C320       C1210   1.496       .  S
C320        O321   1.267       .  A
O325       Ni331   1.942       .  S
O325        C346   1.277       .  A
O326       Ni349   1.905       .  S
O326        C335   1.266       .  A
O327       Ni331   1.917       .  S
O327       Ni349   1.908       .  S
O327       Ni343   1.929       .  S
O327        H350   0.966       .  S
C328       C1325   1.488       .  S
C328        O345   1.284       .  A
C328        O337   1.276       .  A
O329       Ni348   1.923       .  S
O329        C335   1.268       .  A
O330       Ni348   1.916       .  S
O330        C332   1.270       .  A
Ni331       O334   1.953       .  S
Ni331       O336   1.910       .  S
C332        C925   1.494       .  S
C332        O342   1.273       .  A
O333       Ni349   1.912       .  S
O333        C339   1.273       .  A
O334        C339   1.278       .  A
C335        C397   1.494       .  S
O336        C338   1.271       .  A
O337       Ni348   1.926       .  S
C338        C794   1.500       .  S
C338        O344   1.273       .  A
C339        C573   1.495       .  S
H340        O341   0.966       .  S
O341       Ni349   1.921       .  S
O341       Ni343   1.898       .  S
O341       Ni348   1.916       .  S
O342       Ni343   1.926       .  S
Ni343       O347   1.911       .  S
Ni343       O345   1.942       .  S
O344       Ni349   1.941       .  S
C346       C1133   1.500       .  S
C346        O347   1.272       .  A
O351       Ni357   1.937       .  S
O351        C372   1.272       .  A
O352       Ni375   1.907       .  S
O352        C361   1.270       .  A
O353       Ni357   1.923       .  S
O353       Ni375   1.901       .  S
O353       Ni369   1.895       .  S
O353        H376   0.966       .  S
C354        C733   1.490       .  S
C354        O371   1.264       .  A
C354        O363   1.277       .  A
O355       Ni374   1.949       .  S
O355        C361   1.276       .  A
O356       Ni374   1.915       .  S
O356        C358   1.272       .  A
Ni357       O360   1.932       .  S
Ni357       O362   1.919       .  S
C358        C781   1.502       .  S
C358        O368   1.277       .  A
O359       Ni375   1.916       .  S
O359        C365   1.278       .  A
O360        C365   1.277       .  A
C361        C877   1.509       .  S
O362        C364   1.269       .  A
O363       Ni374   1.955       .  S
C364        C938   1.499       .  S
C364        O370   1.269       .  A
C365       C1002   1.485       .  S
H366        O367   0.966       .  S
O367       Ni375   1.928       .  S
O367       Ni369   1.917       .  S
O367       Ni374   1.929       .  S
O368       Ni369   1.939       .  S
Ni369       O373   1.906       .  S
Ni369       O371   1.889       .  S
O370       Ni375   1.918       .  S
C372        C461   1.494       .  S
C372        O373   1.264       .  A
C377        C378   1.401       .  A
C377        C382   1.402       .  A
C377        H384   1.082       .  S
C378        C379   1.411       .  A
C379        C380   1.407       .  A
C379        C386   1.506       .  S
C380        C381   1.408       .  A
C380        H385   1.084       .  S
C381        C382   1.417       .  A
C382        C383   1.501       .  S
C383        H387   1.111       .  S
C383        H388   1.109       .  S
C383        H389   1.110       .  S
C386        H390   1.111       .  S
C386        H391   1.108       .  S
C386        H392   1.111       .  S
C393        C394   1.402       .  A
C393        C398   1.406       .  A
C393        H400   1.085       .  S
C394        C395   1.410       .  A
C395        C396   1.402       .  A
C395        C402   1.506       .  S
C396        C397   1.408       .  A
C396        H401   1.084       .  S
C397        C398   1.421       .  A
C398        C399   1.508       .  S
C399        H403   1.111       .  S
C399        H404   1.110       .  S
C399        H405   1.110       .  S
C402        H406   1.106       .  S
C402        H407   1.110       .  S
C402        H408   1.111       .  S
C409        C410   1.399       .  A
C409        C414   1.404       .  A
C409        H416   1.084       .  S
C410        C411   1.414       .  A
C411        C412   1.407       .  A
C411        C418   1.507       .  S
C412        C413   1.403       .  A
C412        H417   1.084       .  S
C413        C414   1.417       .  A
C414        C415   1.507       .  S
C415        H419   1.111       .  S
C415        H420   1.110       .  S
C415        H421   1.108       .  S
C418        H422   1.110       .  S
C418        H423   1.109       .  S
C418        H424   1.111       .  S
C425        C426   1.403       .  A
C425        C430   1.407       .  A
C425        H432   1.084       .  S
C426        C427   1.412       .  A
C427        C428   1.403       .  A
C427        C434   1.509       .  S
C428        C429   1.405       .  A
C428        H433   1.083       .  S
C429        C430   1.413       .  A
C430        C431   1.506       .  S
C431        H435   1.111       .  S
C431        H436   1.109       .  S
C431        H437   1.110       .  S
C434        H438   1.109       .  S
C434        H439   1.110       .  S
C434        H440   1.111       .  S
C441        C442   1.407       .  A
C441        C446   1.404       .  A
C441        H448   1.084       .  S
C442        C443   1.419       .  A
C443        C444   1.409       .  A
C443        C450   1.508       .  S
C444        C445   1.405       .  A
C444        H449   1.084       .  S
C445        C446   1.410       .  A
C446        C447   1.507       .  S
C447        H451   1.111       .  S
C447        H452   1.109       .  S
C447        H453   1.110       .  S
C450        H454   1.110       .  S
C450        H455   1.110       .  S
C450        H456   1.111       .  S
C457        C458   1.401       .  A
C457        C462   1.405       .  A
C457        H464   1.082       .  S
C458        C459   1.413       .  A
C459        C460   1.407       .  A
C459        C466   1.507       .  S
C460        C461   1.407       .  A
C460        H465   1.084       .  S
C461        C462   1.421       .  A
C462        C463   1.506       .  S
C463        H467   1.111       .  S
C463        H468   1.109       .  S
C463        H469   1.110       .  S
C466        H470   1.110       .  S
C466        H471   1.108       .  S
C466        H472   1.111       .  S
C473        C474   1.401       .  A
C473        C478   1.406       .  A
C473        H480   1.084       .  S
C474        C475   1.409       .  A
C475        C476   1.411       .  A
C475        C482   1.505       .  S
C476        C477   1.413       .  A
C476        H481   1.083       .  S
C477        C478   1.428       .  A
C478        C479   1.510       .  S
C479        H483   1.111       .  S
C479        H484   1.110       .  S
C479        H485   1.110       .  S
C482        H486   1.111       .  S
C482        H487   1.110       .  S
C482        H488   1.110       .  S
C489        C490   1.403       .  A
C489        C494   1.402       .  A
C489        H496   1.078       .  S
C490        C491   1.416       .  A
C491        C492   1.403       .  A
C491        C498   1.506       .  S
C492        C493   1.401       .  A
C492        H497   1.076       .  S
C493        C494   1.412       .  A
C494        C495   1.506       .  S
C495        H499   1.111       .  S
C495        H500   1.110       .  S
C495        H501   1.109       .  S
C498        H502   1.110       .  S
C498        H503   1.109       .  S
C498        H504   1.111       .  S
C505        C506   1.405       .  A
C505        C510   1.400       .  A
C505        H512   1.084       .  S
C506        C507   1.414       .  A
C507        C508   1.413       .  A
C507        C514   1.501       .  S
C508        C509   1.405       .  A
C508        H513   1.083       .  S
C509        C510   1.412       .  A
C510        C511   1.506       .  S
C511        H515   1.110       .  S
C511        H516   1.107       .  S
C511        H517   1.110       .  S
C514        H518   1.105       .  S
C514        H519   1.110       .  S
C514        H520   1.110       .  S
C521        C522   1.402       .  A
C521        C526   1.404       .  A
C521        H528   1.081       .  S
C522        C523   1.413       .  A
C523        C524   1.404       .  A
C523        C530   1.507       .  S
C524        C525   1.406       .  A
C524        H529   1.084       .  S
C525        C526   1.418       .  A
C526        C527   1.507       .  S
C527        H531   1.111       .  S
C527        H532   1.105       .  S
C527        H533   1.111       .  S
C530        H534   1.109       .  S
C530        H535   1.110       .  S
C530        H536   1.110       .  S
C537        C538   1.402       .  A
C537        C542   1.405       .  A
C537        H544   1.084       .  S
C538        C539   1.409       .  A
C539        C540   1.404       .  A
C539        C546   1.506       .  S
C540        C541   1.406       .  A
C540        H545   1.080       .  S
C541        C542   1.419       .  A
C542        C543   1.508       .  S
C543        H547   1.111       .  S
C543        H548   1.110       .  S
C543        H549   1.110       .  S
C546        H550   1.111       .  S
C546        H551   1.109       .  S
C546        H552   1.111       .  S
C553        C554   1.407       .  A
C553        C558   1.405       .  A
C553        H560   1.084       .  S
C554        C555   1.420       .  A
C555        C556   1.407       .  A
C555        C562   1.507       .  S
C556        C557   1.402       .  A
C556        H561   1.084       .  S
C557        C558   1.409       .  A
C558        C559   1.506       .  S
C559        H563   1.111       .  S
C559        H564   1.111       .  S
C559        H565   1.110       .  S
C562        H566   1.110       .  S
C562        H567   1.110       .  S
C562        H568   1.111       .  S
C569        C570   1.404       .  A
C569        C574   1.407       .  A
C569        H576   1.083       .  S
C570        C571   1.410       .  A
C571        C572   1.411       .  A
C571        C578   1.505       .  S
C572        C573   1.410       .  A
C572        H577   1.084       .  S
C573        C574   1.418       .  A
C574        C575   1.507       .  S
C575        H579   1.111       .  S
C575        H580   1.110       .  S
C575        H581   1.109       .  S
C578        H582   1.111       .  S
C578        H583   1.110       .  S
C578        H584   1.110       .  S
C585        C586   1.406       .  A
C585        C590   1.408       .  A
C585        H592   1.081       .  S
C586        C587   1.415       .  A
C587        C588   1.400       .  A
C587        C594   1.509       .  S
C588        C589   1.401       .  A
C588        H593   1.083       .  S
C589        C590   1.410       .  A
C590        C591   1.506       .  S
C591        H595   1.111       .  S
C591        H596   1.110       .  S
C591        H597   1.110       .  S
C594        H598   1.109       .  S
C594        H599   1.110       .  S
C594        H600   1.111       .  S
C601        C602   1.407       .  A
C601        C606   1.414       .  A
C601        H608   1.084       .  S
C602        C603   1.413       .  A
C603        C604   1.401       .  A
C603        C610   1.506       .  S
C604        C605   1.407       .  A
C604        H609   1.085       .  S
C605        C606   1.419       .  A
C606        C607   1.506       .  S
C607        H611   1.111       .  S
C607        H612   1.110       .  S
C607        H613   1.110       .  S
C610        H614   1.110       .  S
C610        H615   1.107       .  S
C610        H616   1.110       .  S
C617        C618   1.397       .  A
C617        C622   1.408       .  A
C617        H624   1.083       .  S
C618        C619   1.420       .  A
C619        C620   1.407       .  A
C619        C626   1.507       .  S
C620        C621   1.398       .  A
C620        H625   1.082       .  S
C621        C622   1.418       .  A
C622        C623   1.505       .  S
C623        H627   1.111       .  S
C623        H628   1.110       .  S
C623        H629   1.110       .  S
C626        H630   1.109       .  S
C626        H631   1.109       .  S
C626        H632   1.111       .  S
C633        C634   1.404       .  A
C633        C638   1.406       .  A
C633        H640   1.077       .  S
C634        C635   1.412       .  A
C635        C636   1.412       .  A
C635        C642   1.504       .  S
C636        C637   1.407       .  A
C636        H641   1.084       .  S
C637        C638   1.413       .  A
C638        C639   1.507       .  S
C639        H643   1.111       .  S
C639        H644   1.108       .  S
C639        H645   1.110       .  S
C642        H646   1.110       .  S
C642        H647   1.111       .  S
C642        H648   1.111       .  S
C649        C650   1.407       .  A
C649        C654   1.408       .  A
C649        H656   1.084       .  S
C650        C651   1.411       .  A
C651        C652   1.404       .  A
C651        C658   1.502       .  S
C652        C653   1.410       .  A
C652        H657   1.084       .  S
C653        C654   1.413       .  A
C654        C655   1.504       .  S
C655        H659   1.111       .  S
C655        H660   1.106       .  S
C655        H661   1.106       .  S
C658        H662   1.103       .  S
C658        H663   1.110       .  S
C658        H664   1.111       .  S
C665        C666   1.401       .  A
C665        C670   1.404       .  A
C665        H672   1.083       .  S
C666        C667   1.409       .  A
C667        C668   1.411       .  A
C667        C674   1.505       .  S
C668        C669   1.412       .  A
C668        H673   1.083       .  S
C669        C670   1.426       .  A
C670        C671   1.510       .  S
C671        H675   1.111       .  S
C671        H676   1.110       .  S
C671        H677   1.110       .  S
C674        H678   1.110       .  S
C674        H679   1.111       .  S
C674        H680   1.111       .  S
C681        C682   1.406       .  A
C681        C686   1.406       .  A
C681        H688   1.080       .  S
C682        C683   1.415       .  A
C683        C684   1.403       .  A
C683        C690   1.509       .  S
C684        C685   1.402       .  A
C684        H689   1.084       .  S
C685        C686   1.411       .  A
C686        C687   1.506       .  S
C687        H691   1.111       .  S
C687        H692   1.110       .  S
C687        H693   1.107       .  S
C690        H694   1.110       .  S
C690        H695   1.106       .  S
C690        H696   1.111       .  S
C697        C698   1.402       .  A
C697        C702   1.399       .  A
C697        H704   1.084       .  S
C698        C699   1.423       .  A
C699        C700   1.417       .  A
C699        C706   1.506       .  S
C700        C701   1.404       .  A
C700        H705   1.084       .  S
C701        C702   1.413       .  A
C702        C703   1.504       .  S
C703        H707   1.111       .  S
C703        H708   1.109       .  S
C703        H709   1.108       .  S
C706        H710   1.104       .  S
C706        H711   1.110       .  S
C706        H712   1.111       .  S
C713        C714   1.406       .  A
C713        C718   1.402       .  A
C713        H720   1.084       .  S
C714        C715   1.408       .  A
C715        C716   1.410       .  A
C715        C722   1.502       .  S
C716        C717   1.408       .  A
C716        H721   1.083       .  S
C717        C718   1.414       .  A
C718        C719   1.504       .  S
C719        H723   1.110       .  S
C719        H724   1.108       .  S
C719        H725   1.111       .  S
C722        H726   1.110       .  S
C722        H727   1.108       .  S
C722        H728   1.111       .  S
C729        C730   1.399       .  A
C729        C734   1.401       .  A
C729        H736   1.078       .  S
C730        C731   1.414       .  A
C731        C732   1.411       .  A
C731        C738   1.506       .  S
C732        C733   1.407       .  A
C732        H737   1.084       .  S
C733        C734   1.418       .  A
C734        C735   1.509       .  S
C735        H739   1.111       .  S
C735        H740   1.110       .  S
C735        H741   1.108       .  S
C738        H742   1.110       .  S
C738        H743   1.110       .  S
C738        H744   1.111       .  S
C745        C746   1.405       .  A
C745        C750   1.410       .  A
C745        H752   1.072       .  S
C746        C747   1.420       .  A
C747        C748   1.403       .  A
C747        C754   1.506       .  S
C748        C749   1.402       .  A
C748        H753   1.084       .  S
C749        C750   1.417       .  A
C750        C751   1.507       .  S
C751        H755   1.111       .  S
C751        H756   1.105       .  S
C751        H757   1.110       .  S
C754        H758   1.110       .  S
C754        H759   1.110       .  S
C754        H760   1.111       .  S
C761        C762   1.398       .  A
C761        C766   1.405       .  A
C761        H768   1.081       .  S
C762        C763   1.416       .  A
C763        C764   1.407       .  A
C763        C770   1.506       .  S
C764        C765   1.399       .  A
C764        H769   1.081       .  S
C765        C766   1.420       .  A
C766        C767   1.507       .  S
C767        H771   1.111       .  S
C767        H772   1.109       .  S
C767        H773   1.109       .  S
C770        H774   1.110       .  S
C770        H775   1.110       .  S
C770        H776   1.111       .  S
C777        C778   1.401       .  A
C777        C782   1.408       .  A
C777        H784   1.080       .  S
C778        C779   1.408       .  A
C779        C780   1.404       .  A
C779        C786   1.507       .  S
C780        C781   1.411       .  A
C780        H785   1.080       .  S
C781        C782   1.423       .  A
C782        C783   1.508       .  S
C783        H787   1.111       .  S
C783        H788   1.109       .  S
C783        H789   1.110       .  S
C786        H790   1.109       .  S
C786        H791   1.110       .  S
C786        H792   1.110       .  S
C793        C794   1.407       .  A
C793        C798   1.402       .  A
C793        H800   1.083       .  S
C794        C795   1.424       .  A
C795        C796   1.410       .  A
C795        C802   1.508       .  S
C796        C797   1.402       .  A
C796        H801   1.084       .  S
C797        C798   1.414       .  A
C798        C799   1.505       .  S
C799        H803   1.111       .  S
C799        H804   1.109       .  S
C799        H805   1.106       .  S
C802        H806   1.108       .  S
C802        H807   1.110       .  S
C802        H808   1.111       .  S
C809        C810   1.398       .  A
C809        C814   1.403       .  A
C809        H816   1.081       .  S
C810        C811   1.414       .  A
C811        C812   1.411       .  A
C811        C818   1.504       .  S
C812        C813   1.403       .  A
C812        H817   1.083       .  S
C813        C814   1.422       .  A
C814        C815   1.507       .  S
C815        H819   1.110       .  S
C815        H820   1.103       .  S
C815        H821   1.111       .  S
C818        H822   1.110       .  S
C818        H823   1.110       .  S
C818        H824   1.111       .  S
C825        C826   1.402       .  A
C825        C830   1.408       .  A
C825        H832   1.084       .  S
C826        C827   1.416       .  A
C827        C828   1.398       .  A
C827        C834   1.510       .  S
C828        C829   1.403       .  A
C828        H833   1.085       .  S
C829        C830   1.415       .  A
C830        C831   1.506       .  S
C831        H835   1.111       .  S
C831        H836   1.110       .  S
C831        H837   1.109       .  S
C834        H838   1.106       .  S
C834        H839   1.110       .  S
C834        H840   1.111       .  S
C841        C842   1.405       .  A
C841        C846   1.407       .  A
C841        H848   1.079       .  S
C842        C843   1.419       .  A
C843        C844   1.404       .  A
C843        C850   1.506       .  S
C844        C845   1.402       .  A
C844        H849   1.084       .  S
C845        C846   1.415       .  A
C846        C847   1.504       .  S
C847        H851   1.111       .  S
C847        H852   1.108       .  S
C847        H853   1.104       .  S
C850        H854   1.110       .  S
C850        H855   1.110       .  S
C850        H856   1.110       .  S
C857        C858   1.401       .  A
C857        C862   1.406       .  A
C857        H864   1.084       .  S
C858        C859   1.415       .  A
C859        C860   1.404       .  A
C859        C866   1.506       .  S
C860        C861   1.398       .  A
C860        H865   1.084       .  S
C861        C862   1.416       .  A
C862        C863   1.507       .  S
C863        H867   1.111       .  S
C863        H868   1.109       .  S
C863        H869   1.110       .  S
C866        H870   1.110       .  S
C866        H871   1.109       .  S
C866        H872   1.110       .  S
C873        C874   1.404       .  A
C873        C878   1.413       .  A
C873        H880   1.083       .  S
C874        C875   1.409       .  A
C875        C876   1.404       .  A
C875        C882   1.508       .  S
C876        C877   1.409       .  A
C876        H881   1.075       .  S
C877        C878   1.424       .  A
C878        C879   1.506       .  S
C879        H883   1.111       .  S
C879        H884   1.110       .  S
C879        H885   1.110       .  S
C882        H886   1.110       .  S
C882        H887   1.109       .  S
C882        H888   1.111       .  S
C889        C890   1.403       .  A
C889        C894   1.405       .  A
C889        H896   1.084       .  S
C890        C891   1.411       .  A
C891        C892   1.407       .  A
C891        C898   1.506       .  S
C892        C893   1.406       .  A
C892        H897   1.084       .  S
C893        C894   1.414       .  A
C894        C895   1.507       .  S
C895        H899   1.111       .  S
C895        H900   1.109       .  S
C895        H901   1.110       .  S
C898        H902   1.110       .  S
C898        H903   1.110       .  S
C898        H904   1.110       .  S
C905        C906   1.410       .  A
C905        C910   1.407       .  A
C905        H912   1.084       .  S
C906        C907   1.423       .  A
C907        C908   1.409       .  A
C907        C914   1.508       .  S
C908        C909   1.402       .  A
C908        H913   1.084       .  S
C909        C910   1.411       .  A
C910        C911   1.507       .  S
C911        H915   1.111       .  S
C911        H916   1.110       .  S
C911        H917   1.109       .  S
C914        H918   1.110       .  S
C914        H919   1.110       .  S
C914        H920   1.111       .  S
C921        C922   1.404       .  A
C921        C926   1.408       .  A
C921        H928   1.084       .  S
C922        C923   1.405       .  A
C923        C924   1.403       .  A
C923        C930   1.507       .  S
C924        C925   1.408       .  A
C924        H929   1.077       .  S
C925        C926   1.418       .  A
C926        C927   1.507       .  S
C927        H931   1.111       .  S
C927        H932   1.108       .  S
C927        H933   1.110       .  S
C930        H934   1.109       .  S
C930        H935   1.110   1_455  S
C930        H936   1.106       .  S
C937        C938   1.411       .  A
C937        C942   1.400       .  A
C937        H944   1.084       .  S
C938        C939   1.421       .  A
C939        C940   1.408       .  A
C939        C946   1.508       .  S
C940        C941   1.404       .  A
C940        H945   1.084   1_545  S
C941        C942   1.409       .  A
C942        C943   1.506       .  S
C943        H947   1.110       .  S
C943        H948   1.108       .  S
C943        H949   1.111       .  S
C946        H950   1.110       .  S
C946        H951   1.109       .  S
C946        H952   1.111       .  S
C953        C954   1.405       .  A
C953        C958   1.412       .  A
C953        H960   1.084       .  S
C954        C955   1.415       .  A
C955        C956   1.393       .  A
C955        C962   1.509       .  S
C956        C957   1.397       .  A
C956        H961   1.083       .  S
C957        C958   1.412       .  A
C958        C959   1.504       .  S
C959        H963   1.111       .  S
C959        H964   1.110       .  S
C959        H965   1.110       .  S
C962        H966   1.109       .  S
C962        H967   1.106       .  S
C962        H968   1.111       .  S
C969        C970   1.406       .  A
C969        C974   1.410       .  A
C969        H976   1.076   1_545  S
C970        C971   1.414       .  A
C971        C972   1.404       .  A
C971        C978   1.507       .  S
C972        C973   1.406       .  A
C972        H977   1.085       .  S
C973        C974   1.415       .  A
C974        C975   1.506       .  S
C975        H979   1.111       .  S
C975        H980   1.110       .  S
C975        H981   1.110       .  S
C978        H982   1.110       .  S
C978        H983   1.109       .  S
C978        H984   1.110       .  S
C985        C986   1.405       .  A
C985        C990   1.407       .  A
C985        H992   1.084       .  S
C986        C987   1.414       .  A
C987        C988   1.412       .  A
C987        C994   1.505       .  S
C988        C989   1.405       .  A
C988        H993   1.084       .  S
C989        C990   1.414       .  A
C990        C991   1.508       .  S
C991        H995   1.111       .  S
C991        H996   1.111       .  S
C991        H997   1.110       .  S
C994        H998   1.111       .  S
C994        H999   1.110       .  S
C994       H1000   1.111       .  S
C1001      C1002   1.406       .  A
C1001      C1006   1.405       .  A
C1001      H1008   1.084       .  S
C1002      C1003   1.413       .  A
C1003      C1004   1.402       .  A
C1003      C1010   1.502       .  S
C1004      C1005   1.403       .  A
C1004      H1009   1.083       .  S
C1005      C1006   1.414       .  A
C1006      C1007   1.506       .  S
C1007      H1011   1.110       .  S
C1007      H1012   1.109       .  S
C1007      H1013   1.110       .  S
C1010      H1014   1.104       .  S
C1010      H1015   1.111       .  S
C1010      H1016   1.111       .  S
C1017      C1018   1.402       .  A
C1017      C1022   1.410       .  A
C1017      H1024   1.085       .  S
C1018      C1019   1.416       .  A
C1019      C1020   1.407       .  A
C1019      C1026   1.508       .  S
C1020      C1021   1.408       .  A
C1020      H1025   1.083       .  S
C1021      C1022   1.425       .  A
C1022      C1023   1.507       .  S
C1023      H1027   1.111       .  S
C1023      H1028   1.109       .  S
C1023      H1029   1.109       .  S
C1026      H1030   1.106       .  S
C1026      H1031   1.109       .  S
C1026      H1032   1.111       .  S
C1033      C1034   1.402       .  A
C1033      C1038   1.406       .  A
C1033      H1040   1.083       .  S
C1034      C1035   1.412       .  A
C1035      C1036   1.397       .  A
C1035      C1042   1.505       .  S
C1036      C1037   1.399       .  A
C1036      H1041   1.080       .  S
C1037      C1038   1.416       .  A
C1038      C1039   1.507       .  S
C1039      H1043   1.111       .  S
C1039      H1044   1.110       .  S
C1039      H1045   1.108       .  S
C1042      H1046   1.107       .  S
C1042      H1047   1.111       .  S
C1042      H1048   1.110       .  S
C1049      C1050   1.398       .  A
C1049      C1054   1.409   1_556  A
C1049      H1056   1.083       .  S
C1050      C1051   1.416       .  A
C1051      C1052   1.411   1_556  A
C1051      C1058   1.504       .  S
C1052      C1053   1.401       .  A
C1052      H1057   1.083       .  S
C1053      C1054   1.425       .  A
C1054      C1055   1.507       .  S
C1055      H1059   1.111       .  S
C1055      H1060   1.103       .  S
C1055      H1061   1.110       .  S
C1058      H1062   1.109       .  S
C1058      H1063   1.110       .  S
C1058      H1064   1.111   1_556  S
C1065      C1066   1.404       .  A
C1065      C1070   1.406       .  A
C1065      H1072   1.084       .  S
C1066      C1067   1.423       .  A
C1067      C1068   1.411       .  A
C1067      C1074   1.508       .  S
C1068      C1069   1.403       .  A
C1068      H1073   1.084       .  S
C1069      C1070   1.419       .  A
C1070      C1071   1.507       .  S
C1071      H1075   1.110       .  S
C1071      H1076   1.110       .  S
C1071      H1077   1.108       .  S
C1074      H1078   1.109       .  S
C1074      H1079   1.110       .  S
C1074      H1080   1.111       .  S
C1081      C1082   1.401       .  A
C1081      C1086   1.408       .  A
C1081      H1088   1.084   1_455  S
C1082      C1083   1.410       .  A
C1083      C1084   1.406       .  A
C1083      C1090   1.507       .  S
C1084      C1085   1.409       .  A
C1084      H1089   1.083       .  S
C1085      C1086   1.421       .  A
C1086      C1087   1.502       .  S
C1087      H1091   1.111       .  S
C1087      H1092   1.110       .  S
C1087      H1093   1.104       .  S
C1090      H1094   1.110       .  S
C1090      H1095   1.109       .  S
C1090      H1096   1.111       .  S
C1097      C1098   1.400       .  A
C1097      C1102   1.404       .  A
C1097      H1104   1.078       .  S
C1098      C1099   1.419       .  A
C1099      C1100   1.411   1_554  A
C1099      C1106   1.505       .  S
C1100      C1101   1.401       .  A
C1100      H1105   1.083       .  S
C1101      C1102   1.420   1_556  A
C1102      C1103   1.508       .  S
C1103      H1107   1.110   1_655  S
C1103      H1108   1.111       .  S
C1103      H1109   1.103   1_554  S
C1106      H1110   1.109       .  S
C1106      H1111   1.110       .  S
C1106      H1112   1.111   1_554  S
C1113      C1114   1.404       .  A
C1113      C1118   1.414       .  A
C1113      H1120   1.084       .  S
C1114      C1115   1.415       .  A
C1115      C1116   1.405       .  A
C1115      C1122   1.506       .  S
C1116      C1117   1.410       .  A
C1116      H1121   1.083       .  S
C1117      C1118   1.424       .  A
C1118      C1119   1.507       .  S
C1119      H1123   1.111       .  S
C1119      H1124   1.110       .  S
C1119      H1125   1.110       .  S
C1122      H1126   1.102       .  S
C1122      H1127   1.110       .  S
C1122      H1128   1.111       .  S
C1129      C1130   1.399       .  A
C1129      C1134   1.403       .  A
C1129      H1136   1.079   1_455  S
C1130      C1131   1.414       .  A
C1131      C1132   1.408       .  A
C1131      C1138   1.506       .  S
C1132      C1133   1.410       .  A
C1132      H1137   1.084       .  S
C1133      C1134   1.419       .  A
C1134      C1135   1.501       .  S
C1135      H1139   1.110       .  S
C1135      H1140   1.109       .  S
C1135      H1141   1.110       .  S
C1138      H1142   1.110       .  S
C1138      H1143   1.109       .  S
C1138      H1144   1.110       .  S
C1145      C1146   1.409   1_655  A
C1145      C1150   1.407       .  A
C1145      H1152   1.084       .  S
C1146      C1147   1.410   1_455  A
C1147      C1148   1.405       .  A
C1147      C1154   1.502   1_655  S
C1148      C1149   1.407       .  A
C1148      H1153   1.084       .  S
C1149      C1150   1.413       .  A
C1150      C1151   1.504       .  S
C1151      H1155   1.111       .  S
C1151      H1156   1.105       .  S
C1151      H1157   1.105       .  S
C1154      H1158   1.109       .  S
C1154      H1159   1.104       .  S
C1154      H1160   1.111       .  S
C1161      C1162   1.402       .  A
C1161      C1166   1.406       .  A
C1161      H1168   1.082       .  S
C1162      C1163   1.408       .  A
C1163      C1164   1.403       .  A
C1163      C1170   1.507       .  S
C1164      C1165   1.412       .  A
C1164      H1169   1.084       .  S
C1165      C1166   1.422       .  A
C1166      C1167   1.508       .  S
C1167      H1171   1.111       .  S
C1167      H1172   1.110       .  S
C1167      H1173   1.110       .  S
C1170      H1174   1.110       .  S
C1170      H1175   1.109       .  S
C1170      H1176   1.111       .  S
C1177      C1178   1.405       .  A
C1177      C1182   1.403       .  A
C1177      H1184   1.083   1_545  S
C1178      C1179   1.408       .  A
C1179      C1180   1.400       .  A
C1179      C1186   1.507       .  S
C1180      C1181   1.405       .  A
C1180      H1185   1.077       .  S
C1181      C1182   1.415       .  A
C1182      C1183   1.507       .  S
C1183      H1187   1.111       .  S
C1183      H1188   1.110       .  S
C1183      H1189   1.110       .  S
C1186      H1190   1.109       .  S
C1186      H1191   1.110       .  S
C1186      H1192   1.111       .  S
C1193      C1194   1.397       .  A
C1193      C1198   1.405       .  A
C1193      H1200   1.083       .  S
C1194      C1195   1.416       .  A
C1195      C1196   1.406       .  A
C1195      C1202   1.505       .  S
C1196      C1197   1.397       .  A
C1196      H1201   1.083   1_655  S
C1197      C1198   1.419       .  A
C1198      C1199   1.506       .  S
C1199      H1203   1.111       .  S
C1199      H1204   1.108       .  S
C1199      H1205   1.108       .  S
C1202      H1206   1.109       .  S
C1202      H1207   1.109       .  S
C1202      H1208   1.111       .  S
C1209      C1210   1.408       .  A
C1209      C1214   1.403       .  A
C1209      H1216   1.084       .  S
C1210      C1211   1.419       .  A
C1211      C1212   1.408       .  A
C1211      C1218   1.503       .  S
C1212      C1213   1.402       .  A
C1212      H1217   1.084       .  S
C1213      C1214   1.409       .  A
C1214      C1215   1.507       .  S
C1215      H1219   1.111       .  S
C1215      H1220   1.109       .  S
C1215      H1221   1.110       .  S
C1218      H1222   1.110       .  S
C1218      H1223   1.110       .  S
C1218      H1224   1.111       .  S
C1225      C1226   1.406       .  A
C1225      C1230   1.406       .  A
C1225      H1232   1.082       .  S
C1226      C1227   1.412       .  A
C1227      C1228   1.403       .  A
C1227      C1234   1.507       .  S
C1228      C1229   1.401       .  A
C1228      H1233   1.084       .  S
C1229      C1230   1.409       .  A
C1230      C1231   1.507       .  S
C1231      H1235   1.111       .  S
C1231      H1236   1.110       .  S
C1231      H1237   1.105       .  S
C1234      H1238   1.110       .  S
C1234      H1239   1.108       .  S
C1234      H1240   1.111       .  S
C1241      C1242   1.404       .  A
C1241      C1246   1.416       .  A
C1241      H1248   1.083       .  S
C1242      C1243   1.415       .  A
C1243      C1244   1.398       .  A
C1243      C1250   1.509       .  S
C1244      C1245   1.403       .  A
C1244      H1249   1.083       .  S
C1245      C1246   1.414       .  A
C1246      C1247   1.499   1_554  S
C1247      H1251   1.111       .  S
C1247      H1252   1.108   1_556  S
C1247      H1253   1.109       .  S
C1250      H1254   1.109   1_565  S
C1250      H1255   1.107   1_565  S
C1250      H1256   1.111       .  S
C1257      C1258   1.403       .  A
C1257      C1262   1.403       .  A
C1257      H1264   1.083       .  S
C1258      C1259   1.416       .  A
C1259      C1260   1.406       .  A
C1259      C1266   1.508       .  S
C1260      C1261   1.402       .  A
C1260      H1265   1.084       .  S
C1261      C1262   1.411       .  A
C1262      C1263   1.506       .  S
C1263      H1267   1.111       .  S
C1263      H1268   1.110       .  S
C1263      H1269   1.109       .  S
C1266      H1270   1.110       .  S
C1266      H1271   1.108       .  S
C1266      H1272   1.111       .  S
C1273      C1274   1.405       .  A
C1273      C1278   1.415       .  A
C1273      H1280   1.084       .  S
C1274      C1275   1.417       .  A
C1275      C1276   1.400       .  A
C1275      C1282   1.507       .  S
C1276      C1277   1.400       .  A
C1276      H1281   1.085       .  S
C1277      C1278   1.417       .  A
C1278      C1279   1.506       .  S
C1279      H1283   1.111   1_545  S
C1279      H1284   1.110       .  S
C1279      H1285   1.105       .  S
C1282      H1286   1.108       .  S
C1282      H1287   1.111       .  S
C1282      H1288   1.110       .  S
C1289      C1290   1.402       .  A
C1289      C1294   1.409       .  A
C1289      H1296   1.080       .  S
C1290      C1291   1.417       .  A
C1291      C1292   1.412       .  A
C1291      C1298   1.503       .  S
C1292      C1293   1.401       .  A
C1292      H1297   1.082   1_565  S
C1293      C1294   1.419       .  A
C1294      C1295   1.507       .  S
C1295      H1299   1.111       .  S
C1295      H1300   1.109       .  S
C1295      H1301   1.109   1_554  S
C1298      H1302   1.108       .  S
C1298      H1303   1.110       .  S
C1298      H1304   1.111       .  S
C1305      C1306   1.404       .  A
C1305      C1310   1.406       .  A
C1305      H1312   1.084       .  S
C1306      C1307   1.416       .  A
C1307      C1308   1.399       .  A
C1307      C1314   1.505       .  S
C1308      C1309   1.397       .  A
C1308      H1313   1.085       .  S
C1309      C1310   1.411       .  A
C1310      C1311   1.507       .  S
C1311      H1315   1.110       .  S
C1311      H1316   1.110       .  S
C1311      H1317   1.110       .  S
C1314      H1318   1.111       .  S
C1314      H1319   1.104       .  S
C1314      H1320   1.110       .  S
C1321      C1322   1.404       .  A
C1321      C1326   1.404       .  A
C1321      H1328   1.084       .  S
C1322      C1323   1.416       .  A
C1323      C1324   1.412       .  A
C1323      C1330   1.504       .  S
C1324      C1325   1.404       .  A
C1324      H1329   1.084       .  S
C1325      C1326   1.412       .  A
C1326      C1327   1.503       .  S
C1327      H1331   1.110       .  S
C1327      H1332   1.110       .  S
C1327      H1333   1.108       .  S
C1330      H1334   1.110       .  S
C1330      H1335   1.108       .  S
C1330      H1336   1.111       .  S
